@<TRIPOS>MOLECULE
*****
 35 37 0 0 0
SMALL
GASTEIGER

@<TRIPOS>ATOM
      1 C         140.7989  140.5873  168.6090 C.ar    1  UNL1        0.0764
      2 C         139.9759  140.0608  167.4708 C.ar    1  UNL1        0.0522
      3 C         138.6143  139.4883  167.7317 C.ar    1  UNL1        0.1515
      4 N         138.0756  139.4423  169.1309 N.ar    1  UNL1       -0.1329
      5 N         138.8985  139.9688  170.2691 N.ar    1  UNL1       -0.1409
      6 C         140.2602  140.5414  170.0082 C.ar    1  UNL1        0.1691
      7 C         141.0831  141.0679  171.1464 C.2     1  UNL1        0.2635
      8 N         142.3804  140.4049  171.5035 N.am    1  UNL1       -0.3240
      9 O         140.6088  142.2574  171.9274 O.2     1  UNL1       -0.2686
     10 H         142.6917  139.6241  170.9909 H       1  UNL1        0.1453
     11 H         142.9205  140.7505  172.2506 H       1  UNL1        0.1453
     12 N         142.1606  141.1598  168.3480 N.pl3   1  UNL1       -0.2965
     13 H         142.7434  141.4069  169.1020 H       1  UNL1        0.1537
     14 C         143.5815  141.7478  164.1189 C.ar    1  UNL1        0.1522
     15 C         143.8160  140.4394  164.8138 C.ar    1  UNL1        0.0410
     16 C         143.3423  140.2434  166.2235 C.ar    1  UNL1        0.0375
     17 C         142.6342  141.3558  166.9383 C.ar    1  UNL1        0.1320
     18 N         142.3997  142.6642  166.2434 N.ar    1  UNL1       -0.2319
     19 C         142.8734  142.8603  164.8337 C.ar    1  UNL1        0.0938
     20 C         142.6388  144.1688  164.1389 C.3     1  UNL1        0.0434
     21 C         141.2944  144.4736  163.5476 C.3     1  UNL1        0.0064
     22 C         143.7487  145.1724  164.0352 C.3     1  UNL1        0.0064
     23 C         144.4810  140.7618  161.8899 C.3     1  UNL1        0.2525
     24 O         144.0551  141.9438  162.7092 O.3     1  UNL1       -0.4702
     25 N         137.7913  138.9617  166.5935 N.pl3   1  UNL1       -0.3168
     26 H         136.8591  138.6849  166.7469 H       1  UNL1        0.1482
     27 C         138.3887  138.8570  165.2216 C.3     1  UNL1        0.0895
     28 C         139.1245  137.6140  164.8169 C.3     1  UNL1        0.0530
     29 C         139.7220  137.5093  163.4450 C.3     1  UNL1        0.1440
     30 O         139.5836  138.6475  162.4778 O.3     1  UNL1       -0.3522
     31 C         138.8479  139.8904  162.8825 C.3     1  UNL1        0.1592
     32 C         138.2504  139.9951  164.2544 C.3     1  UNL1        0.0990
     33 N         137.5147  141.2380  164.6592 N.3     1  UNL1       -0.3189
     34 H         137.1780  141.1372  165.6167 H       1  UNL1        0.1189
     35 H         136.7222  141.3829  164.0336 H       1  UNL1        0.1189
@<TRIPOS>BOND
     1    23    24    1
     2    24    14    1
     3    14    15   ar
     4    15    16   ar
     5    16    17   ar
     6    17    12    1
     7    12     1    1
     8     1     2   ar
     9     2     3   ar
    10     3    25    1
    11    27    25    1
    12    27    28    1
    13    28    29    1
    14    29    30    1
    15    30    31    1
    16    31    32    1
    17    32    33    1
    18     3     4   ar
    19     4     5   ar
    20     5     6   ar
    21     6     7    1
    22     7     8   am
    23     7     9    2
    24    17    18   ar
    25    18    19   ar
    26    19    20    1
    27    20    21    1
    28    20    22    1
    29    19    14   ar
    30     6     1   ar
    31    32    27    1
    32    12    13    1
    33    25    26    1
    34    33    34    1
    35    33    35    1
    36     8    10    1
    37     8    11    1
@<TRIPOS>MOLECULE
*****
 35 37 0 0 0
SMALL
GASTEIGER

@<TRIPOS>ATOM
      1 C         143.6586  141.5055  165.5894 C.ar    1  UNL1        0.0764
      2 C         143.0096  141.0064  166.8463 C.ar    1  UNL1        0.0522
      3 C         142.9937  139.5376  167.1500 C.ar    1  UNL1        0.1515
      4 N         143.6268  138.5678  166.1968 N.ar    1  UNL1       -0.1329
      5 N         144.2757  139.0668  164.9399 N.ar    1  UNL1       -0.1409
      6 C         144.2916  140.5357  164.6362 C.ar    1  UNL1        0.1691
      7 C         144.9406  141.0346  163.3793 C.2     1  UNL1        0.2635
      8 N         146.2033  141.8407  163.4562 N.am    1  UNL1       -0.3240
      9 O         144.3269  140.7275  162.0455 O.2     1  UNL1       -0.2686
     10 H         146.6061  142.0422  164.3316 H       1  UNL1        0.1453
     11 H         146.6292  142.1682  162.6312 H       1  UNL1        0.1453
     12 N         143.6745  142.9743  165.2857 N.pl3   1  UNL1       -0.2965
     13 H         144.4290  143.5309  165.5859 H       1  UNL1        0.1537
     14 C         140.2734  144.8368  163.0022 C.ar    1  UNL1        0.1522
     15 C         141.6682  144.8998  162.4542 C.ar    1  UNL1        0.0410
     16 C         142.8019  144.2790  163.2153 C.ar    1  UNL1        0.0375
     17 C         142.5408  143.5951  164.5245 C.ar    1  UNL1        0.1320
     18 N         141.1459  143.5321  165.0726 N.ar    1  UNL1       -0.2319
     19 C         140.0123  144.1529  164.3114 C.ar    1  UNL1        0.0938
     20 C         138.6174  144.0899  164.8596 C.3     1  UNL1        0.0434
     21 C         138.1639  145.0975  165.8740 C.3     1  UNL1        0.0064
     22 C         137.6760  143.0192  164.3933 C.3     1  UNL1        0.0064
     23 C         139.4133  146.5367  161.2357 C.3     1  UNL1        0.2525
     24 O         139.1397  145.4576  162.2411 O.3     1  UNL1       -0.4702
     25 N         142.3447  139.0386  168.4069 N.pl3   1  UNL1       -0.3168
     26 H         142.4449  138.0957  168.6718 H       1  UNL1        0.1482
     27 C         141.5429  139.9762  169.2602 C.3     1  UNL1        0.0895
     28 C         140.0759  140.1554  169.0034 C.3     1  UNL1        0.0530
     29 C         139.2742  141.0930  169.8567 C.3     1  UNL1        0.1440
     30 O         139.9395  141.8513  170.9669 O.3     1  UNL1       -0.3522
     31 C         141.4064  141.6721  171.2237 C.3     1  UNL1        0.1592
     32 C         142.2081  140.7345  170.3704 C.3     1  UNL1        0.0990
     33 N         143.6750  140.5553  170.6272 N.3     1  UNL1       -0.3189
     34 H         144.0580  139.8869  169.9586 H       1  UNL1        0.1189
     35 H         143.8140  140.2055  171.5752 H       1  UNL1        0.1189
@<TRIPOS>BOND
     1    23    24    1
     2    24    14    1
     3    14    15   ar
     4    15    16   ar
     5    16    17   ar
     6    17    12    1
     7    12     1    1
     8     1     2   ar
     9     2     3   ar
    10     3    25    1
    11    27    25    1
    12    27    28    1
    13    28    29    1
    14    29    30    1
    15    30    31    1
    16    31    32    1
    17    32    33    1
    18     3     4   ar
    19     4     5   ar
    20     5     6   ar
    21     6     7    1
    22     7     8   am
    23     7     9    2
    24    17    18   ar
    25    18    19   ar
    26    19    20    1
    27    20    21    1
    28    20    22    1
    29    19    14   ar
    30     6     1   ar
    31    32    27    1
    32    12    13    1
    33    25    26    1
    34    33    34    1
    35    33    35    1
    36     8    10    1
    37     8    11    1
@<TRIPOS>MOLECULE
*****
 35 37 0 0 0
SMALL
GASTEIGER

@<TRIPOS>ATOM
      1 C         141.1071  141.9050  167.1930 C.ar    1  UNL1        0.0764
      2 C         141.9019  141.1180  166.1935 C.ar    1  UNL1        0.0522
      3 C         142.7366  139.9568  166.6461 C.ar    1  UNL1        0.1515
      4 N         142.7765  139.5826  168.0981 N.ar    1  UNL1       -0.1329
      5 N         141.9817  140.3695  169.0976 N.ar    1  UNL1       -0.1409
      6 C         141.1470  141.5308  168.6450 C.ar    1  UNL1        0.1691
      7 C         140.3522  142.3177  169.6445 C.2     1  UNL1        0.2635
      8 N         139.3326  141.6285  170.5020 N.am    1  UNL1       -0.3240
      9 O         140.5770  143.7939  169.7865 O.2     1  UNL1       -0.2686
     10 H         139.1850  140.6596  170.4088 H       1  UNL1        0.1453
     11 H         138.8109  142.1450  171.1580 H       1  UNL1        0.1453
     12 N         140.2724  143.0662  166.7405 N.pl3   1  UNL1       -0.2965
     13 H         140.0921  143.8127  167.3566 H       1  UNL1        0.1537
     14 C         138.5922  143.1383  162.5665 C.ar    1  UNL1        0.1522
     15 C         138.0120  142.2107  163.5927 C.ar    1  UNL1        0.0410
     16 C         138.5721  142.1867  164.9840 C.ar    1  UNL1        0.0375
     17 C         139.7123  143.0903  165.3492 C.ar    1  UNL1        0.1320
     18 N         140.2925  144.0178  164.3230 N.ar    1  UNL1       -0.2319
     19 C         139.7325  144.0418  162.9317 C.ar    1  UNL1        0.0938
     20 C         140.3127  144.9694  161.9055 C.3     1  UNL1        0.0434
     21 C         141.4942  144.5386  161.0879 C.3     1  UNL1        0.0064
     22 C         139.7115  146.3277  161.6971 C.3     1  UNL1        0.0064
     23 C         138.5040  142.1645  160.1595 C.3     1  UNL1        0.2525
     24 O         138.0322  143.1623  161.1752 O.3     1  UNL1       -0.4702
     25 N         143.5315  139.1698  165.6466 N.pl3   1  UNL1       -0.3168
     26 H         144.5039  139.0678  165.7615 H       1  UNL1        0.1482
     27 C         142.8447  138.5382  164.4721 C.3     1  UNL1        0.0895
     28 C         141.5864  137.7473  164.6754 C.3     1  UNL1        0.0530
     29 C         140.8996  137.1157  163.5009 C.3     1  UNL1        0.1440
     30 O         141.4711  137.2751  162.1232 O.3     1  UNL1       -0.3522
     31 C         142.7293  138.0660  161.9200 C.3     1  UNL1        0.1592
     32 C         143.4161  138.6976  163.0945 C.3     1  UNL1        0.0990
     33 N         144.6743  139.4884  162.8913 N.3     1  UNL1       -0.3189
     34 H         145.0022  139.8425  163.7899 H       1  UNL1        0.1189
     35 H         144.4863  140.2716  162.2654 H       1  UNL1        0.1189
@<TRIPOS>BOND
     1    23    24    1
     2    24    14    1
     3    14    15   ar
     4    15    16   ar
     5    16    17   ar
     6    17    12    1
     7    12     1    1
     8     1     2   ar
     9     2     3   ar
    10     3    25    1
    11    27    25    1
    12    27    28    1
    13    28    29    1
    14    29    30    1
    15    30    31    1
    16    31    32    1
    17    32    33    1
    18     3     4   ar
    19     4     5   ar
    20     5     6   ar
    21     6     7    1
    22     7     8   am
    23     7     9    2
    24    17    18   ar
    25    18    19   ar
    26    19    20    1
    27    20    21    1
    28    20    22    1
    29    19    14   ar
    30     6     1   ar
    31    32    27    1
    32    12    13    1
    33    25    26    1
    34    33    34    1
    35    33    35    1
    36     8    10    1
    37     8    11    1
@<TRIPOS>MOLECULE
*****
 35 37 0 0 0
SMALL
GASTEIGER

@<TRIPOS>ATOM
      1 C         141.0501  139.5475  165.5504 C.ar    1  UNL1        0.0764
      2 C         141.4308  139.7537  166.9866 C.ar    1  UNL1        0.0522
      3 C         142.6702  139.1100  167.5338 C.ar    1  UNL1        0.1515
      4 N         143.5291  138.2602  166.6449 N.ar    1  UNL1       -0.1329
      5 N         143.1485  138.0540  165.2088 N.ar    1  UNL1       -0.1409
      6 C         141.9090  138.6976  164.6615 C.ar    1  UNL1        0.1691
      7 C         141.5284  138.4914  163.2253 C.2     1  UNL1        0.2635
      8 N         141.7806  139.5752  162.2195 N.am    1  UNL1       -0.3240
      9 O         140.8956  137.2013  162.7950 O.2     1  UNL1       -0.2686
     10 H         142.1959  140.4220  162.5020 H       1  UNL1        0.1453
     11 H         141.5308  139.4399  161.2769 H       1  UNL1        0.1453
     12 N         139.8107  140.1911  165.0032 N.pl3   1  UNL1       -0.2965
     13 H         138.9643  139.6888  164.9801 H       1  UNL1        0.1537
     14 C         139.9610  144.4180  163.4669 C.ar    1  UNL1        0.1522
     15 C         138.6648  143.8437  163.9566 C.ar    1  UNL1        0.0410
     16 C         138.6147  142.4347  164.4687 C.ar    1  UNL1        0.0375
     17 C         139.8608  141.6001  164.4911 C.ar    1  UNL1        0.1320
     18 N         141.1570  142.1744  164.0013 N.ar    1  UNL1       -0.2319
     19 C         141.2071  143.5834  163.4892 C.ar    1  UNL1        0.0938
     20 C         142.5034  144.1578  162.9995 C.3     1  UNL1        0.0434
     21 C         143.3030  145.0669  163.8850 C.3     1  UNL1        0.0064
     22 C         143.0001  143.8230  161.6243 C.3     1  UNL1        0.0064
     23 C         139.7048  146.1129  161.5145 C.3     1  UNL1        0.2525
     24 O         140.0111  145.8270  162.9548 O.3     1  UNL1       -0.4702
     25 N         143.0509  139.3163  168.9701 N.pl3   1  UNL1       -0.3168
     26 H         143.5866  138.6368  169.4398 H       1  UNL1        0.1482
     27 C         142.6154  140.5577  169.6906 C.3     1  UNL1        0.0895
     28 C         143.4257  141.8148  169.5758 C.3     1  UNL1        0.0530
     29 C         142.9902  143.0563  170.2963 C.3     1  UNL1        0.1440
     30 O         141.7443  143.0406  171.1316 O.3     1  UNL1       -0.3522
     31 C         140.9340  141.7835  171.2463 C.3     1  UNL1        0.1592
     32 C         141.3696  140.5421  170.5258 C.3     1  UNL1        0.0990
     33 N         140.5593  139.2850  170.6406 N.3     1  UNL1       -0.3189
     34 H         140.9980  138.5464  170.0907 H       1  UNL1        0.1189
     35 H         139.6165  139.4551  170.2905 H       1  UNL1        0.1189
@<TRIPOS>BOND
     1    23    24    1
     2    24    14    1
     3    14    15   ar
     4    15    16   ar
     5    16    17   ar
     6    17    12    1
     7    12     1    1
     8     1     2   ar
     9     2     3   ar
    10     3    25    1
    11    27    25    1
    12    27    28    1
    13    28    29    1
    14    29    30    1
    15    30    31    1
    16    31    32    1
    17    32    33    1
    18     3     4   ar
    19     4     5   ar
    20     5     6   ar
    21     6     7    1
    22     7     8   am
    23     7     9    2
    24    17    18   ar
    25    18    19   ar
    26    19    20    1
    27    20    21    1
    28    20    22    1
    29    19    14   ar
    30     6     1   ar
    31    32    27    1
    32    12    13    1
    33    25    26    1
    34    33    34    1
    35    33    35    1
    36     8    10    1
    37     8    11    1
@<TRIPOS>MOLECULE
*****
 35 37 0 0 0
SMALL
GASTEIGER

@<TRIPOS>ATOM
      1 C         140.1822  141.5126  167.4025 C.ar    1  UNL1        0.0764
      2 C         139.6342  140.6494  166.3049 C.ar    1  UNL1        0.0522
      3 C         138.7697  139.4700  166.6390 C.ar    1  UNL1        0.1515
      4 N         138.4531  139.1538  168.0707 N.ar    1  UNL1       -0.1329
      5 N         139.0011  140.0169  169.1683 N.ar    1  UNL1       -0.1409
      6 C         139.8656  141.1963  168.8342 C.ar    1  UNL1        0.1691
      7 C         140.4136  142.0594  169.9318 C.2     1  UNL1        0.2635
      8 N         139.5016  142.5792  171.0033 N.am    1  UNL1       -0.3240
      9 O         141.8735  142.4028  169.9578 O.2     1  UNL1       -0.2686
     10 H         138.5434  142.3538  170.9862 H       1  UNL1        0.1453
     11 H         139.8613  143.1457  171.7237 H       1  UNL1        0.1453
     12 N         141.0467  142.6919  167.0683 N.pl3   1  UNL1       -0.2965
     13 H         141.2220  143.3821  167.7482 H       1  UNL1        0.1537
     14 C         142.8387  143.0756  162.9584 C.ar    1  UNL1        0.1522
     15 C         141.7006  143.9635  163.3663 C.ar    1  UNL1        0.0410
     16 C         141.1033  143.8356  164.7362 C.ar    1  UNL1        0.0375
     17 C         141.6440  142.8198  165.6984 C.ar    1  UNL1        0.1320
     18 N         142.7822  141.9320  165.2905 N.ar    1  UNL1       -0.2319
     19 C         143.3795  142.0599  163.9206 C.ar    1  UNL1        0.0938
     20 C         144.5177  141.1720  163.5128 C.3     1  UNL1        0.0434
     21 C         145.9329  141.6269  163.7134 C.3     1  UNL1        0.0064
     22 C         144.2406  139.8292  162.9044 C.3     1  UNL1        0.0064
     23 C         142.8293  142.4632  160.4336 C.3     1  UNL1        0.2525
     24 O         143.4361  143.2035  161.5885 O.3     1  UNL1       -0.4702
     25 N         138.2217  138.6068  165.5414 N.pl3   1  UNL1       -0.3168
     26 H         137.2873  138.2987  165.5774 H       1  UNL1        0.1482
     27 C         139.0973  138.2131  164.3889 C.3     1  UNL1        0.0895
     28 C         140.2963  137.3422  164.6212 C.3     1  UNL1        0.0530
     29 C         141.1719  136.9485  163.4687 C.3     1  UNL1        0.1440
     30 O         140.8485  137.4258  162.0838 O.3     1  UNL1       -0.3522
     31 C         139.6496  138.2967  161.8516 C.3     1  UNL1        0.1592
     32 C         138.7739  138.6904  163.0041 C.3     1  UNL1        0.0990
     33 N         137.5750  139.5613  162.7718 N.3     1  UNL1       -0.3189
     34 H         137.0988  139.7277  163.6584 H       1  UNL1        0.1189
     35 H         136.9373  139.0966  162.1254 H       1  UNL1        0.1189
@<TRIPOS>BOND
     1    23    24    1
     2    24    14    1
     3    14    15   ar
     4    15    16   ar
     5    16    17   ar
     6    17    12    1
     7    12     1    1
     8     1     2   ar
     9     2     3   ar
    10     3    25    1
    11    27    25    1
    12    27    28    1
    13    28    29    1
    14    29    30    1
    15    30    31    1
    16    31    32    1
    17    32    33    1
    18     3     4   ar
    19     4     5   ar
    20     5     6   ar
    21     6     7    1
    22     7     8   am
    23     7     9    2
    24    17    18   ar
    25    18    19   ar
    26    19    20    1
    27    20    21    1
    28    20    22    1
    29    19    14   ar
    30     6     1   ar
    31    32    27    1
    32    12    13    1
    33    25    26    1
    34    33    34    1
    35    33    35    1
    36     8    10    1
    37     8    11    1
@<TRIPOS>MOLECULE
*****
 35 37 0 0 0
SMALL
GASTEIGER

@<TRIPOS>ATOM
      1 C         141.2633  141.3350  167.4392 C.ar    1  UNL1        0.0764
      2 C         141.3816  140.3097  166.3507 C.ar    1  UNL1        0.0522
      3 C         142.3082  139.1421  166.5177 C.ar    1  UNL1        0.1515
      4 N         143.1166  138.9996  167.7731 N.ar    1  UNL1       -0.1329
      5 N         142.9983  140.0248  168.8617 N.ar    1  UNL1       -0.1409
      6 C         142.0716  141.1925  168.6947 C.ar    1  UNL1        0.1691
      7 C         141.9533  142.2177  169.7833 C.2     1  UNL1        0.2635
      8 N         143.1832  142.8909  170.3164 N.am    1  UNL1       -0.3240
      9 O         140.6052  142.5698  170.3386 O.2     1  UNL1       -0.2686
     10 H         144.0681  142.6598  169.9519 H       1  UNL1        0.1453
     11 H         143.1056  143.5637  171.0309 H       1  UNL1        0.1453
     12 N         140.3366  142.5026  167.2723 N.pl3   1  UNL1       -0.2965
     13 H         139.7115  142.7421  167.9941 H       1  UNL1        0.1537
     14 C         140.4139  144.9110  163.4718 C.ar    1  UNL1        0.1522
     15 C         139.1630  144.8527  164.2974 C.ar    1  UNL1        0.0410
     16 C         139.1372  144.0499  165.5642 C.ar    1  UNL1        0.0375
     17 C         140.3624  143.3054  166.0054 C.ar    1  UNL1        0.1320
     18 N         141.6133  143.3637  165.1798 N.ar    1  UNL1       -0.2319
     19 C         141.6391  144.1665  163.9130 C.ar    1  UNL1        0.0938
     20 C         142.8901  144.2247  163.0873 C.3     1  UNL1        0.0434
     21 C         143.0709  143.2848  161.9324 C.3     1  UNL1        0.0064
     22 C         143.9602  145.2229  163.4166 C.3     1  UNL1        0.0064
     23 C         140.0003  145.0908  160.9132 C.3     1  UNL1        0.2525
     24 O         140.4397  145.7138  162.2049 O.3     1  UNL1       -0.4702
     25 N         142.4266  138.1168  165.4291 N.pl3   1  UNL1       -0.3168
     26 H         142.1789  137.1804  165.6057 H       1  UNL1        0.1482
     27 C         142.9222  138.5182  164.0714 C.3     1  UNL1        0.0895
     28 C         144.0221  139.5301  163.9435 C.3     1  UNL1        0.0530
     29 C         144.5177  139.9315  162.5859 C.3     1  UNL1        0.1440
     30 O         143.9135  139.3209  161.3561 O.3     1  UNL1       -0.3522
     31 C         142.8137  138.3090  161.4841 C.3     1  UNL1        0.1592
     32 C         142.3180  137.9076  162.8417 C.3     1  UNL1        0.0990
     33 N         141.2182  136.8957  162.9697 N.3     1  UNL1       -0.3189
     34 H         141.0091  136.7438  163.9564 H       1  UNL1        0.1189
     35 H         141.5141  136.0165  162.5455 H       1  UNL1        0.1189
@<TRIPOS>BOND
     1    23    24    1
     2    24    14    1
     3    14    15   ar
     4    15    16   ar
     5    16    17   ar
     6    17    12    1
     7    12     1    1
     8     1     2   ar
     9     2     3   ar
    10     3    25    1
    11    27    25    1
    12    27    28    1
    13    28    29    1
    14    29    30    1
    15    30    31    1
    16    31    32    1
    17    32    33    1
    18     3     4   ar
    19     4     5   ar
    20     5     6   ar
    21     6     7    1
    22     7     8   am
    23     7     9    2
    24    17    18   ar
    25    18    19   ar
    26    19    20    1
    27    20    21    1
    28    20    22    1
    29    19    14   ar
    30     6     1   ar
    31    32    27    1
    32    12    13    1
    33    25    26    1
    34    33    34    1
    35    33    35    1
    36     8    10    1
    37     8    11    1
@<TRIPOS>MOLECULE
*****
 35 37 0 0 0
SMALL
GASTEIGER

@<TRIPOS>ATOM
      1 C         140.7331  139.9875  167.1424 C.ar    1  UNL1        0.0764
      2 C         141.5426  139.4787  165.9865 C.ar    1  UNL1        0.0522
      3 C         142.8879  138.8606  166.2275 C.ar    1  UNL1        0.1515
      4 N         143.4238  138.7513  167.6242 N.ar    1  UNL1       -0.1329
      5 N         142.6144  139.2601  168.7800 N.ar    1  UNL1       -0.1409
      6 C         141.2690  139.8783  168.5391 C.ar    1  UNL1        0.1691
      7 C         140.4596  140.3871  169.6949 C.2     1  UNL1        0.2635
      8 N         140.2643  139.5287  170.9094 N.am    1  UNL1       -0.3240
      9 O         139.8454  141.7543  169.6362 O.2     1  UNL1       -0.2686
     10 H         140.6674  138.6313  170.9479 H       1  UNL1        0.1453
     11 H         139.7331  139.8626  171.6680 H       1  UNL1        0.1453
     12 N         139.3879  140.6056  166.9014 N.pl3   1  UNL1       -0.2965
     13 H         138.7155  140.6170  167.6204 H       1  UNL1        0.1537
     14 C         138.4252  142.4077  162.8919 C.ar    1  UNL1        0.1522
     15 C         137.7369  141.1505  163.3339 C.ar    1  UNL1        0.0410
     16 C         138.0577  140.5497  164.6704 C.ar    1  UNL1        0.0375
     17 C         139.0670  141.2063  165.5649 C.ar    1  UNL1        0.1320
     18 N         139.7553  142.4636  165.1230 N.ar    1  UNL1       -0.2319
     19 C         139.4344  143.0643  163.7865 C.ar    1  UNL1        0.0938
     20 C         140.1229  144.3217  163.3446 C.3     1  UNL1        0.0434
     21 C         141.6111  144.4498  163.4817 C.3     1  UNL1        0.0064
     22 C         139.3231  145.4508  162.7656 C.3     1  UNL1        0.0064
     23 C         138.5495  142.3220  160.2983 C.3     1  UNL1        0.2525
     24 O         138.1043  143.0084  161.5555 O.3     1  UNL1       -0.4702
     25 N         143.6974  138.3517  165.0717 N.pl3   1  UNL1       -0.3168
     26 H         143.9328  137.3973  165.0178 H       1  UNL1        0.1482
     27 C         144.1483  139.2971  163.9979 C.3     1  UNL1        0.0895
     28 C         144.9842  140.4911  164.3525 C.3     1  UNL1        0.0530
     29 C         145.4352  141.4365  163.2788 C.3     1  UNL1        0.1440
     30 O         145.0502  141.1879  161.8504 O.3     1  UNL1       -0.3522
     31 C         144.2143  139.9939  161.4959 C.3     1  UNL1        0.1592
     32 C         143.7634  139.0485  162.5697 C.3     1  UNL1        0.0990
     33 N         142.9276  137.8546  162.2151 N.3     1  UNL1       -0.3189
     34 H         142.7137  137.3260  163.0609 H       1  UNL1        0.1189
     35 H         143.4415  137.2609  161.5641 H       1  UNL1        0.1189
@<TRIPOS>BOND
     1    23    24    1
     2    24    14    1
     3    14    15   ar
     4    15    16   ar
     5    16    17   ar
     6    17    12    1
     7    12     1    1
     8     1     2   ar
     9     2     3   ar
    10     3    25    1
    11    27    25    1
    12    27    28    1
    13    28    29    1
    14    29    30    1
    15    30    31    1
    16    31    32    1
    17    32    33    1
    18     3     4   ar
    19     4     5   ar
    20     5     6   ar
    21     6     7    1
    22     7     8   am
    23     7     9    2
    24    17    18   ar
    25    18    19   ar
    26    19    20    1
    27    20    21    1
    28    20    22    1
    29    19    14   ar
    30     6     1   ar
    31    32    27    1
    32    12    13    1
    33    25    26    1
    34    33    34    1
    35    33    35    1
    36     8    10    1
    37     8    11    1
@<TRIPOS>MOLECULE
*****
 35 37 0 0 0
SMALL
GASTEIGER

@<TRIPOS>ATOM
      1 C         140.7745  139.0513  165.3293 C.ar    1  UNL1        0.0764
      2 C         140.5934  139.6657  166.6857 C.ar    1  UNL1        0.0522
      3 C         139.2957  139.4963  167.4186 C.ar    1  UNL1        0.1515
      4 N         138.1790  138.7125  166.7952 N.ar    1  UNL1       -0.1329
      5 N         138.3600  138.0981  165.4388 N.ar    1  UNL1       -0.1409
      6 C         139.6578  138.2675  164.7058 C.ar    1  UNL1        0.1691
      7 C         139.8388  137.6532  163.3495 C.2     1  UNL1        0.2635
      8 N         138.7432  137.7507  162.3296 N.am    1  UNL1       -0.3240
      9 O         141.1155  136.9413  163.0130 O.2     1  UNL1       -0.2686
     10 H         137.9052  138.2179  162.5505 H       1  UNL1        0.1453
     11 H         138.8620  137.3475  161.4394 H       1  UNL1        0.1453
     12 N         142.0722  139.2207  164.5964 N.pl3   1  UNL1       -0.2965
     13 H         142.8033  138.5761  164.7346 H       1  UNL1        0.1537
     14 C         142.6235  142.6755  161.7662 C.ar    1  UNL1        0.1522
     15 C         142.6398  141.2691  161.2450 C.ar    1  UNL1        0.0410
     16 C         142.4560  140.1175  162.1884 C.ar    1  UNL1        0.0375
     17 C         142.2560  140.3723  163.6530 C.ar    1  UNL1        0.1320
     18 N         142.2397  141.7787  164.1742 N.ar    1  UNL1       -0.2319
     19 C         142.4235  142.9304  163.2308 C.ar    1  UNL1        0.0938
     20 C         142.4073  144.3368  163.7520 C.3     1  UNL1        0.0434
     21 C         143.6930  145.0131  164.1257 C.3     1  UNL1        0.0064
     22 C         141.1054  145.0670  163.8995 C.3     1  UNL1        0.0064
     23 C         141.6266  144.3927  160.0906 C.3     1  UNL1        0.2525
     24 O         142.8073  143.8272  160.8228 O.3     1  UNL1       -0.4702
     25 N         139.1146  140.1106  168.7751 N.pl3   1  UNL1       -0.3168
     26 H         138.3025  139.9193  169.2977 H       1  UNL1        0.1482
     27 C         140.1709  141.0165  169.3352 C.3     1  UNL1        0.0895
     28 C         140.1673  142.4762  168.9897 C.3     1  UNL1        0.0530
     29 C         141.2236  143.3820  169.5499 C.3     1  UNL1        0.1440
     30 O         142.2834  142.8281  170.4554 O.3     1  UNL1       -0.3522
     31 C         142.2870  141.3685  170.8008 C.3     1  UNL1        0.1592
     32 C         141.2307  140.4626  170.2407 C.3     1  UNL1        0.0990
     33 N         141.2342  139.0030  170.5861 N.3     1  UNL1       -0.3189
     34 H         140.4517  138.5419  170.1218 H       1  UNL1        0.1189
     35 H         141.1435  138.8923  171.5960 H       1  UNL1        0.1189
@<TRIPOS>BOND
     1    23    24    1
     2    24    14    1
     3    14    15   ar
     4    15    16   ar
     5    16    17   ar
     6    17    12    1
     7    12     1    1
     8     1     2   ar
     9     2     3   ar
    10     3    25    1
    11    27    25    1
    12    27    28    1
    13    28    29    1
    14    29    30    1
    15    30    31    1
    16    31    32    1
    17    32    33    1
    18     3     4   ar
    19     4     5   ar
    20     5     6   ar
    21     6     7    1
    22     7     8   am
    23     7     9    2
    24    17    18   ar
    25    18    19   ar
    26    19    20    1
    27    20    21    1
    28    20    22    1
    29    19    14   ar
    30     6     1   ar
    31    32    27    1
    32    12    13    1
    33    25    26    1
    34    33    34    1
    35    33    35    1
    36     8    10    1
    37     8    11    1
@<TRIPOS>MOLECULE
*****
 35 37 0 0 0
SMALL
GASTEIGER

@<TRIPOS>ATOM
      1 C         139.2698  141.4052  165.1205 C.ar    1  UNL1        0.0764
      2 C         139.8210  141.3429  166.5142 C.ar    1  UNL1        0.0522
      3 C         139.4714  140.1903  167.4081 C.ar    1  UNL1        0.1515
      4 N         138.5705  139.1000  166.9085 N.ar    1  UNL1       -0.1329
      5 N         138.0194  139.1622  165.5148 N.ar    1  UNL1       -0.1409
      6 C         138.3690  140.3149  164.6208 C.ar    1  UNL1        0.1691
      7 C         137.8178  140.3771  163.2271 C.2     1  UNL1        0.2635
      8 N         138.0013  139.2160  162.2955 N.am    1  UNL1       -0.3240
      9 O         137.0832  141.6006  162.7652 O.2     1  UNL1       -0.2686
     10 H         138.4834  138.4130  162.5987 H       1  UNL1        0.1453
     11 H         137.6395  139.2568  161.3808 H       1  UNL1        0.1453
     12 N         139.6195  142.5578  164.2265 N.pl3   1  UNL1       -0.2965
     13 H         139.0456  143.3575  164.2072 H       1  UNL1        0.1537
     14 C         143.2916  142.3604  161.6329 C.ar    1  UNL1        0.1522
     15 C         142.0861  143.1231  161.1693 C.ar    1  UNL1        0.0410
     16 C         140.8620  143.1889  162.0339 C.ar    1  UNL1        0.0375
     17 C         140.8435  142.4920  163.3620 C.ar    1  UNL1        0.1320
     18 N         142.0490  141.7293  163.8255 N.ar    1  UNL1       -0.2319
     19 C         143.2730  141.6635  162.9610 C.ar    1  UNL1        0.0938
     20 C         144.4786  140.9007  163.4246 C.3     1  UNL1        0.0434
     21 C         144.4520  139.4012  163.4533 C.3     1  UNL1        0.0064
     22 C         145.7107  141.6373  163.8595 C.3     1  UNL1        0.0064
     23 C         144.3811  142.3212  159.2747 C.3     1  UNL1        0.2525
     24 O         144.5156  142.2946  160.7684 O.3     1  UNL1       -0.4702
     25 N         140.0225  140.1280  168.8019 N.pl3   1  UNL1       -0.3168
     26 H         139.7255  139.4194  169.4175 H       1  UNL1        0.1482
     27 C         141.0263  141.1453  169.2576 C.3     1  UNL1        0.0895
     28 C         140.5688  142.5017  169.7060 C.3     1  UNL1        0.0530
     29 C         141.5726  143.5189  170.1617 C.3     1  UNL1        0.1440
     30 O         143.0338  143.1798  170.1690 O.3     1  UNL1       -0.3522
     31 C         143.4911  141.8235  169.7207 C.3     1  UNL1        0.1592
     32 C         142.4874  140.8062  169.2649 C.3     1  UNL1        0.0990
     33 N         142.9448  139.4498  168.8166 N.3     1  UNL1       -0.3189
     34 H         142.1361  138.8914  168.5436 H       1  UNL1        0.1189
     35 H         143.4354  138.9865  169.5814 H       1  UNL1        0.1189
@<TRIPOS>BOND
     1    23    24    1
     2    24    14    1
     3    14    15   ar
     4    15    16   ar
     5    16    17   ar
     6    17    12    1
     7    12     1    1
     8     1     2   ar
     9     2     3   ar
    10     3    25    1
    11    27    25    1
    12    27    28    1
    13    28    29    1
    14    29    30    1
    15    30    31    1
    16    31    32    1
    17    32    33    1
    18     3     4   ar
    19     4     5   ar
    20     5     6   ar
    21     6     7    1
    22     7     8   am
    23     7     9    2
    24    17    18   ar
    25    18    19   ar
    26    19    20    1
    27    20    21    1
    28    20    22    1
    29    19    14   ar
    30     6     1   ar
    31    32    27    1
    32    12    13    1
    33    25    26    1
    34    33    34    1
    35    33    35    1
    36     8    10    1
    37     8    11    1
