@<TRIPOS>MOLECULE
*****
 35 40 0 0 0
SMALL
GASTEIGER

@<TRIPOS>ATOM
      1 N         141.4254  138.3612  158.6506 N.ar    1  UNL1       -0.2340
      2 N         141.4913  138.1462  160.1336 N.ar    1  UNL1       -0.1679
      3 C         140.2525  138.7332  160.7426 C.ar    1  UNL1        0.1065
      4 C         139.4211  139.3111  159.6359 C.ar    1  UNL1        0.0860
      5 C         138.0975  140.0170  159.6384 C.ar    1  UNL1        0.1316
      6 N         137.3727  140.2469  160.9314 N.pl3   1  UNL1       -0.3425
      7 N         137.4989  140.4929  158.3481 N.ar    1  UNL1       -0.2093
      8 C         138.2237  140.2630  157.0551 C.ar    1  UNL1        0.2014
      9 N         139.5473  139.5572  157.0526 N.ar    1  UNL1       -0.2050
     10 C         140.1459  139.0812  158.3429 C.ar    1  UNL1        0.1653
     11 H         137.7656  139.9345  161.7783 H       1  UNL1        0.1437
     12 H         136.5040  140.7101  160.9331 H       1  UNL1        0.1437
     13 C         139.9060  138.7411  162.2020 C.ar    1  UNL1        0.0195
     14 C         139.1149  137.6110  162.7911 C.ar    1  UNL1        0.0016
     15 C         138.7685  137.6188  164.2505 C.ar    1  UNL1        0.0001
     16 C         139.2130  138.7568  165.1208 C.ar    1  UNL1        0.0030
     17 C         138.8665  138.7646  166.5803 C.ar    1  UNL1        0.0369
     18 C         139.3111  139.9025  167.4506 C.ar    1  UNL1        0.1384
     19 C         140.1022  141.0327  166.8614 C.ar    1  UNL1        0.0369
     20 C         140.4487  141.0248  165.4020 C.ar    1  UNL1        0.0031
     21 C         140.0041  139.8869  164.5317 C.ar    1  UNL1        0.0002
     22 C         140.3506  139.8790  163.0723 C.ar    1  UNL1        0.0016
     23 O         138.9646  139.9104  168.9099 O.3     1  UNL1       -0.4792
     24 C         139.7637  140.7456  169.8660 C.3     1  UNL1        0.1659
     25 C         139.6984  142.1659  170.3440 C.3     1  UNL1        0.0436
     26 C         140.8936  141.9268  171.2181 C.3     1  UNL1        0.0074
     27 C         140.9589  140.5064  170.7401 C.3     1  UNL1        0.0436
     28 C         142.4578  137.9317  157.6507 C.3     1  UNL1        0.1291
     29 C         141.7216  132.8287  154.5820 C.3     1  UNL1        0.0896
     30 N         141.9056  134.1045  155.3492 N.3     1  UNL1       -0.2715
     31 C         142.9837  134.2066  156.3872 C.3     1  UNL1        0.0722
     32 C         143.1677  135.4824  157.1544 C.3     1  UNL1        0.0194
     33 C         142.2737  136.6560  156.8835 C.3     1  UNL1        0.0272
     34 C         141.1957  136.5539  155.8455 C.3     1  UNL1        0.0194
     35 C         141.0117  135.2782  155.0783 C.3     1  UNL1        0.0722
@<TRIPOS>BOND
     1    29    30    1
     2    30    31    1
     3    31    32    1
     4    32    33    1
     5    33    28    1
     6    28     1    1
     7     1     2   ar
     8     2     3   ar
     9     3    13    1
    10    13    14   ar
    11    14    15   ar
    12    15    16   ar
    13    16    17   ar
    14    17    18   ar
    15    18    23    1
    16    23    24    1
    17    24    25    1
    18    25    26    1
    19    26    27    1
    20    18    19   ar
    21    19    20   ar
    22    20    21   ar
    23    21    22   ar
    24     3     4   ar
    25     4     5   ar
    26     5     6    1
    27     5     7   ar
    28     7     8   ar
    29     8     9   ar
    30     9    10   ar
    31    33    34    1
    32    34    35    1
    33    35    30    1
    34    10     1   ar
    35    22    13   ar
    36    10     4   ar
    37    21    16   ar
    38    27    24    1
    39     6    11    1
    40     6    12    1
@<TRIPOS>MOLECULE
*****
 35 40 0 0 0
SMALL
GASTEIGER

@<TRIPOS>ATOM
      1 N         141.9468  137.8254  158.1184 N.ar    1  UNL1       -0.2340
      2 N         142.0464  137.9268  159.6116 N.ar    1  UNL1       -0.1679
      3 C         140.8654  138.7104  160.1028 C.ar    1  UNL1        0.1065
      4 C         140.0359  139.0933  158.9131 C.ar    1  UNL1        0.0860
      5 C         138.7584  139.8694  158.7881 C.ar    1  UNL1        0.1316
      6 N         138.0901  140.4163  160.0145 N.pl3   1  UNL1       -0.3425
      7 N         138.1492  140.0985  157.4367 N.ar    1  UNL1       -0.2093
      8 C         138.8175  139.5516  156.2102 C.ar    1  UNL1        0.2014
      9 N         140.0951  138.7755  156.3352 N.ar    1  UNL1       -0.2050
     10 C         140.7043  138.5464  157.6866 C.ar    1  UNL1        0.1653
     11 H         138.4899  140.2659  160.9015 H       1  UNL1        0.1437
     12 H         137.2516  140.9256  159.9325 H       1  UNL1        0.1437
     13 C         140.5663  139.0512  161.5326 C.ar    1  UNL1        0.0195
     14 C         141.0630  140.3408  162.1159 C.ar    1  UNL1        0.0016
     15 C         140.7640  140.6816  163.5457 C.ar    1  UNL1        0.0001
     16 C         139.9682  139.7328  164.3922 C.ar    1  UNL1        0.0030
     17 C         139.6691  140.0737  165.8221 C.ar    1  UNL1        0.0369
     18 C         138.8733  139.1249  166.6686 C.ar    1  UNL1        0.1384
     19 C         138.3766  137.8353  166.0853 C.ar    1  UNL1        0.0369
     20 C         138.6757  137.4945  164.6555 C.ar    1  UNL1        0.0031
     21 C         139.4715  138.4432  163.8090 C.ar    1  UNL1        0.0002
     22 C         139.7706  138.1025  162.3792 C.ar    1  UNL1        0.0016
     23 O         138.5743  139.4657  168.0984 O.3     1  UNL1       -0.4792
     24 C         139.6131  140.1451  168.9406 C.3     1  UNL1        0.1659
     25 C         139.6289  141.3420  169.8446 C.3     1  UNL1        0.0436
     26 C         141.0822  141.1060  170.1317 C.3     1  UNL1        0.0074
     27 C         141.0663  139.9091  169.2276 C.3     1  UNL1        0.0436
     28 C         142.9191  137.1259  157.2154 C.3     1  UNL1        0.1291
     29 C         141.8264  131.5108  155.4051 C.3     1  UNL1        0.0896
     30 N         142.0995  132.9147  155.8576 N.3     1  UNL1       -0.2715
     31 C         143.1122  133.1720  156.9339 C.3     1  UNL1        0.0722
     32 C         143.3854  134.5758  157.3865 C.3     1  UNL1        0.0194
     33 C         142.6459  135.7222  156.7628 C.3     1  UNL1        0.0272
     34 C         141.6332  135.4648  155.6865 C.3     1  UNL1        0.0194
     35 C         141.3601  134.0610  155.2339 C.3     1  UNL1        0.0722
@<TRIPOS>BOND
     1    29    30    1
     2    30    31    1
     3    31    32    1
     4    32    33    1
     5    33    28    1
     6    28     1    1
     7     1     2   ar
     8     2     3   ar
     9     3    13    1
    10    13    14   ar
    11    14    15   ar
    12    15    16   ar
    13    16    17   ar
    14    17    18   ar
    15    18    23    1
    16    23    24    1
    17    24    25    1
    18    25    26    1
    19    26    27    1
    20    18    19   ar
    21    19    20   ar
    22    20    21   ar
    23    21    22   ar
    24     3     4   ar
    25     4     5   ar
    26     5     6    1
    27     5     7   ar
    28     7     8   ar
    29     8     9   ar
    30     9    10   ar
    31    33    34    1
    32    34    35    1
    33    35    30    1
    34    10     1   ar
    35    22    13   ar
    36    10     4   ar
    37    21    16   ar
    38    27    24    1
    39     6    11    1
    40     6    12    1
@<TRIPOS>MOLECULE
*****
 35 40 0 0 0
SMALL
GASTEIGER

@<TRIPOS>ATOM
      1 N         142.2978  137.6183  158.1762 N.ar    1  UNL1       -0.2340
      2 N         142.7635  137.6306  159.6020 N.ar    1  UNL1       -0.1679
      3 C         141.7472  138.3760  160.4152 C.ar    1  UNL1        0.1065
      4 C         140.6532  138.8243  159.4920 C.ar    1  UNL1        0.0860
      5 C         139.3912  139.5985  159.7327 C.ar    1  UNL1        0.1316
      6 N         139.0509  140.0667  161.1165 N.pl3   1  UNL1       -0.3425
      7 N         138.4694  139.9044  158.5895 N.ar    1  UNL1       -0.2093
      8 C         138.8097  139.4361  157.2057 C.ar    1  UNL1        0.2014
      9 N         140.0718  138.6619  156.9651 N.ar    1  UNL1       -0.2050
     10 C         140.9935  138.3560  158.1082 C.ar    1  UNL1        0.1653
     11 H         139.6559  139.8660  161.8668 H       1  UNL1        0.1437
     12 H         138.2226  140.5748  161.2744 H       1  UNL1        0.1437
     13 C         141.8131  138.6287  161.8924 C.ar    1  UNL1        0.0195
     14 C         141.3560  137.5730  162.8550 C.ar    1  UNL1        0.0016
     15 C         141.4220  137.8258  164.3320 C.ar    1  UNL1        0.0001
     16 C         141.9450  139.1341  164.8465 C.ar    1  UNL1        0.0030
     17 C         142.0109  139.3868  166.3236 C.ar    1  UNL1        0.0369
     18 C         142.5339  140.6952  166.8381 C.ar    1  UNL1        0.1384
     19 C         142.9910  141.7509  165.8754 C.ar    1  UNL1        0.0369
     20 C         142.9251  141.4981  164.3983 C.ar    1  UNL1        0.0031
     21 C         142.4021  140.1898  163.8839 C.ar    1  UNL1        0.0002
     22 C         142.3361  139.9370  162.4068 C.ar    1  UNL1        0.0016
     23 O         142.5999  140.9479  168.3151 O.3     1  UNL1       -0.4792
     24 C         141.8316  142.0875  168.9161 C.3     1  UNL1        0.1659
     25 C         142.0588  143.0357  170.0560 C.3     1  UNL1        0.0436
     26 C         140.7451  143.6991  169.7661 C.3     1  UNL1        0.0074
     27 C         140.5180  142.7509  168.6262 C.3     1  UNL1        0.0436
     28 C         143.0111  136.9802  157.0212 C.3     1  UNL1        0.1291
     29 C         141.8831  131.2646  155.5860 C.3     1  UNL1        0.0896
     30 N         142.1651  132.6936  155.9448 N.3     1  UNL1       -0.2715
     31 C         141.4511  133.8016  155.2289 C.3     1  UNL1        0.0722
     32 C         141.7331  135.2304  155.5877 C.3     1  UNL1        0.0194
     33 C         142.7291  135.5513  156.6624 C.3     1  UNL1        0.0272
     34 C         143.4432  134.4433  157.3783 C.3     1  UNL1        0.0194
     35 C         143.1612  133.0144  157.0195 C.3     1  UNL1        0.0722
@<TRIPOS>BOND
     1    29    30    1
     2    30    31    1
     3    31    32    1
     4    32    33    1
     5    33    28    1
     6    28     1    1
     7     1     2   ar
     8     2     3   ar
     9     3    13    1
    10    13    14   ar
    11    14    15   ar
    12    15    16   ar
    13    16    17   ar
    14    17    18   ar
    15    18    23    1
    16    23    24    1
    17    24    25    1
    18    25    26    1
    19    26    27    1
    20    18    19   ar
    21    19    20   ar
    22    20    21   ar
    23    21    22   ar
    24     3     4   ar
    25     4     5   ar
    26     5     6    1
    27     5     7   ar
    28     7     8   ar
    29     8     9   ar
    30     9    10   ar
    31    33    34    1
    32    34    35    1
    33    35    30    1
    34    10     1   ar
    35    22    13   ar
    36    10     4   ar
    37    21    16   ar
    38    27    24    1
    39     6    11    1
    40     6    12    1
@<TRIPOS>MOLECULE
*****
 35 40 0 0 0
SMALL
GASTEIGER

@<TRIPOS>ATOM
      1 N         138.4524  142.9538  158.3792 N.ar    1  UNL1       -0.2340
      2 N         138.2583  142.6573  159.8367 N.ar    1  UNL1       -0.1679
      3 C         139.3234  143.3837  160.6034 C.ar    1  UNL1        0.1065
      4 C         140.1758  144.1292  159.6197 C.ar    1  UNL1        0.0860
      5 C         141.3727  145.0156  159.7981 C.ar    1  UNL1        0.1316
      6 N         141.9109  145.2812  161.1728 N.pl3   1  UNL1       -0.3425
      7 N         142.0312  145.6363  158.6019 N.ar    1  UNL1       -0.2093
      8 C         141.4930  145.3706  157.2272 C.ar    1  UNL1        0.2014
      9 N         140.2961  144.4842  157.0489 N.ar    1  UNL1       -0.2050
     10 C         139.6376  143.8635  158.2451 C.ar    1  UNL1        0.1653
     11 H         141.4787  144.8738  161.9579 H       1  UNL1        0.1437
     12 H         142.6965  145.8630  161.2899 H       1  UNL1        0.1437
     13 C         139.5043  143.3675  162.0924 C.ar    1  UNL1        0.0195
     14 C         138.7374  144.3285  162.9516 C.ar    1  UNL1        0.0016
     15 C         138.9184  144.3123  164.4406 C.ar    1  UNL1        0.0001
     16 C         139.8663  143.3350  165.0703 C.ar    1  UNL1        0.0030
     17 C         140.0473  143.3188  166.5593 C.ar    1  UNL1        0.0369
     18 C         140.9952  142.3416  167.1890 C.ar    1  UNL1        0.1384
     19 C         141.7621  141.3806  166.3297 C.ar    1  UNL1        0.0369
     20 C         141.5811  141.3968  164.8408 C.ar    1  UNL1        0.0031
     21 C         140.6332  142.3740  164.2111 C.ar    1  UNL1        0.0002
     22 C         140.4522  142.3903  162.7221 C.ar    1  UNL1        0.0016
     23 O         141.1761  142.3254  168.6779 O.3     1  UNL1       -0.4792
     24 C         141.7780  141.1254  169.3473 C.3     1  UNL1        0.1659
     25 C         143.0917  140.8262  170.0066 C.3     1  UNL1        0.0436
     26 C         142.6291  139.4285  170.2939 C.3     1  UNL1        0.0074
     27 C         141.3155  139.7278  169.6345 C.3     1  UNL1        0.0436
     28 C         137.6094  142.4322  157.2534 C.3     1  UNL1        0.1291
     29 C         138.8529  137.1025  154.7942 C.3     1  UNL1        0.0896
     30 N         138.5421  138.4350  155.4091 N.3     1  UNL1       -0.2715
     31 C         137.4486  139.2880  154.8374 C.3     1  UNL1        0.0722
     32 C         137.1378  140.6204  155.4521 C.3     1  UNL1        0.0194
     33 C         137.9203  141.0998  156.6386 C.3     1  UNL1        0.0272
     34 C         139.0137  140.2468  157.2104 C.3     1  UNL1        0.0194
     35 C         139.3246  138.9144  156.5956 C.3     1  UNL1        0.0722
@<TRIPOS>BOND
     1    29    30    1
     2    30    31    1
     3    31    32    1
     4    32    33    1
     5    33    28    1
     6    28     1    1
     7     1     2   ar
     8     2     3   ar
     9     3    13    1
    10    13    14   ar
    11    14    15   ar
    12    15    16   ar
    13    16    17   ar
    14    17    18   ar
    15    18    23    1
    16    23    24    1
    17    24    25    1
    18    25    26    1
    19    26    27    1
    20    18    19   ar
    21    19    20   ar
    22    20    21   ar
    23    21    22   ar
    24     3     4   ar
    25     4     5   ar
    26     5     6    1
    27     5     7   ar
    28     7     8   ar
    29     8     9   ar
    30     9    10   ar
    31    33    34    1
    32    34    35    1
    33    35    30    1
    34    10     1   ar
    35    22    13   ar
    36    10     4   ar
    37    21    16   ar
    38    27    24    1
    39     6    11    1
    40     6    12    1
@<TRIPOS>MOLECULE
*****
 35 40 0 0 0
SMALL
GASTEIGER

@<TRIPOS>ATOM
      1 N         135.7600  141.4068  155.8692 N.ar    1  UNL1       -0.2340
      2 N         136.2369  140.3865  156.8600 N.ar    1  UNL1       -0.1679
      3 C         137.4907  140.9090  157.4963 C.ar    1  UNL1        0.1065
      4 C         137.7887  142.2522  156.8988 C.ar    1  UNL1        0.0860
      5 C         138.8958  143.2350  157.1406 C.ar    1  UNL1        0.1316
      6 N         139.9654  142.9273  158.1462 N.pl3   1  UNL1       -0.3425
      7 N         138.9334  144.5253  156.3767 N.ar    1  UNL1       -0.2093
      8 C         137.8638  144.8330  155.3711 C.ar    1  UNL1        0.2014
      9 N         136.7566  143.8502  155.1294 N.ar    1  UNL1       -0.2050
     10 C         136.7191  142.5599  155.8932 C.ar    1  UNL1        0.1653
     11 H         139.9408  142.0804  158.6475 H       1  UNL1        0.1437
     12 H         140.6921  143.5723  158.3048 H       1  UNL1        0.1437
     13 C         138.3038  140.2109  158.5459 C.ar    1  UNL1        0.0195
     14 C         139.5873  139.5311  158.1713 C.ar    1  UNL1        0.0016
     15 C         140.4003  138.8331  159.2209 C.ar    1  UNL1        0.0001
     16 C         139.9298  138.8147  160.6450 C.ar    1  UNL1        0.0030
     17 C         140.7429  138.1166  161.6946 C.ar    1  UNL1        0.0369
     18 C         140.2724  138.0983  163.1188 C.ar    1  UNL1        0.1384
     19 C         138.9887  138.7781  163.4934 C.ar    1  UNL1        0.0369
     20 C         138.1757  139.4762  162.4438 C.ar    1  UNL1        0.0031
     21 C         138.6462  139.4945  161.0196 C.ar    1  UNL1        0.0002
     22 C         137.8332  140.1926  159.9701 C.ar    1  UNL1        0.0016
     23 O         141.0854  137.4002  164.1684 O.3     1  UNL1       -0.4792
     24 C         141.8557  138.2009  165.1761 C.3     1  UNL1        0.1659
     25 C         141.4957  139.1946  166.2406 C.3     1  UNL1        0.0436
     26 C         142.9450  139.3333  166.6013 C.3     1  UNL1        0.0074
     27 C         143.3050  138.3397  165.5368 C.3     1  UNL1        0.0436
     28 C         134.5385  141.2938  155.0060 C.3     1  UNL1        0.1291
     29 C         129.5383  138.8020  157.1945 C.3     1  UNL1        0.0896
     30 N         130.7884  139.4250  156.6473 N.3     1  UNL1       -0.2715
     31 C         132.0867  138.6759  156.7046 C.3     1  UNL1        0.0722
     32 C         133.3367  139.2989  156.1574 C.3     1  UNL1        0.0194
     33 C         133.2884  140.6709  155.5531 C.3     1  UNL1        0.0272
     34 C         131.9901  141.4200  155.4959 C.3     1  UNL1        0.0194
     35 C         130.7401  140.7970  156.0430 C.3     1  UNL1        0.0722
@<TRIPOS>BOND
     1    29    30    1
     2    30    31    1
     3    31    32    1
     4    32    33    1
     5    33    28    1
     6    28     1    1
     7     1     2   ar
     8     2     3   ar
     9     3    13    1
    10    13    14   ar
    11    14    15   ar
    12    15    16   ar
    13    16    17   ar
    14    17    18   ar
    15    18    23    1
    16    23    24    1
    17    24    25    1
    18    25    26    1
    19    26    27    1
    20    18    19   ar
    21    19    20   ar
    22    20    21   ar
    23    21    22   ar
    24     3     4   ar
    25     4     5   ar
    26     5     6    1
    27     5     7   ar
    28     7     8   ar
    29     8     9   ar
    30     9    10   ar
    31    33    34    1
    32    34    35    1
    33    35    30    1
    34    10     1   ar
    35    22    13   ar
    36    10     4   ar
    37    21    16   ar
    38    27    24    1
    39     6    11    1
    40     6    12    1
@<TRIPOS>MOLECULE
*****
 35 40 0 0 0
SMALL
GASTEIGER

@<TRIPOS>ATOM
      1 N         143.7376  142.8237  158.2249 N.ar    1  UNL1       -0.2340
      2 N         144.1200  142.4162  159.6169 N.ar    1  UNL1       -0.1679
      3 C         143.2184  143.1367  160.5750 C.ar    1  UNL1        0.1065
      4 C         142.2787  143.9895  159.7751 C.ar    1  UNL1        0.0860
      5 C         141.1724  144.9173  160.1817 C.ar    1  UNL1        0.1316
      6 N         140.8515  145.1107  161.6341 N.pl3   1  UNL1       -0.3425
      7 N         140.3869  145.6516  159.1358 N.ar    1  UNL1       -0.2093
      8 C         140.7078  145.4581  157.6834 C.ar    1  UNL1        0.2014
      9 N         141.8142  144.5304  157.2768 N.ar    1  UNL1       -0.2050
     10 C         142.5996  143.7961  158.3227 C.ar    1  UNL1        0.1653
     11 H         141.3670  144.6287  162.3206 H       1  UNL1        0.1437
     12 H         140.1254  145.7196  161.9010 H       1  UNL1        0.1437
     13 C         143.2506  143.0242  162.0705 C.ar    1  UNL1        0.0195
     14 C         144.0732  143.9846  162.8773 C.ar    1  UNL1        0.0016
     15 C         144.1054  143.8720  164.3727 C.ar    1  UNL1        0.0001
     16 C         143.3152  142.7990  165.0613 C.ar    1  UNL1        0.0030
     17 C         143.3475  142.6865  166.5567 C.ar    1  UNL1        0.0369
     18 C         142.5572  141.6135  167.2453 C.ar    1  UNL1        0.1384
     19 C         141.7346  140.6531  166.4384 C.ar    1  UNL1        0.0369
     20 C         141.7023  140.7656  164.9431 C.ar    1  UNL1        0.0031
     21 C         142.4926  141.8386  164.2545 C.ar    1  UNL1        0.0002
     22 C         142.4604  141.9512  162.7591 C.ar    1  UNL1        0.0016
     23 O         142.5894  141.5009  168.7407 O.3     1  UNL1       -0.4792
     24 C         141.4724  142.0757  169.5604 C.3     1  UNL1        0.1659
     25 C         140.4217  143.1224  169.3355 C.3     1  UNL1        0.0436
     26 C         139.8926  142.8887  170.7196 C.3     1  UNL1        0.0074
     27 C         140.9434  141.8420  170.9443 C.3     1  UNL1        0.0436
     28 C         144.3803  142.3432  156.9576 C.3     1  UNL1        0.1291
     29 C         144.0481  136.5491  155.4350 C.3     1  UNL1        0.0896
     30 N         144.1312  137.9977  155.8157 N.3     1  UNL1       -0.2715
     31 C         145.1707  138.8793  155.1895 C.3     1  UNL1        0.0722
     32 C         145.2538  140.3278  155.5701 C.3     1  UNL1        0.0194
     33 C         144.2973  140.8947  156.5770 C.3     1  UNL1        0.0272
     34 C         143.2577  140.0131  157.2032 C.3     1  UNL1        0.0194
     35 C         143.1746  138.5646  156.8225 C.3     1  UNL1        0.0722
@<TRIPOS>BOND
     1    29    30    1
     2    30    31    1
     3    31    32    1
     4    32    33    1
     5    33    28    1
     6    28     1    1
     7     1     2   ar
     8     2     3   ar
     9     3    13    1
    10    13    14   ar
    11    14    15   ar
    12    15    16   ar
    13    16    17   ar
    14    17    18   ar
    15    18    23    1
    16    23    24    1
    17    24    25    1
    18    25    26    1
    19    26    27    1
    20    18    19   ar
    21    19    20   ar
    22    20    21   ar
    23    21    22   ar
    24     3     4   ar
    25     4     5   ar
    26     5     6    1
    27     5     7   ar
    28     7     8   ar
    29     8     9   ar
    30     9    10   ar
    31    33    34    1
    32    34    35    1
    33    35    30    1
    34    10     1   ar
    35    22    13   ar
    36    10     4   ar
    37    21    16   ar
    38    27    24    1
    39     6    11    1
    40     6    12    1
@<TRIPOS>MOLECULE
*****
 35 40 0 0 0
SMALL
GASTEIGER

@<TRIPOS>ATOM
      1 N         138.4733  140.2716  157.6844 N.ar    1  UNL1       -0.2340
      2 N         137.9829  140.2274  159.1013 N.ar    1  UNL1       -0.1679
      3 C         139.0339  139.5562  159.9348 C.ar    1  UNL1        0.1065
      4 C         140.1739  139.1856  159.0331 C.ar    1  UNL1        0.0860
      5 C         141.4827  138.5026  159.2988 C.ar    1  UNL1        0.1316
      6 N         141.8291  138.0605  160.6897 N.pl3   1  UNL1       -0.3425
      7 N         142.4450  138.2617  158.1737 N.ar    1  UNL1       -0.2093
      8 C         142.0986  138.7039  156.7828 C.ar    1  UNL1        0.2014
      9 N         140.7897  139.3869  156.5172 N.ar    1  UNL1       -0.2050
     10 C         139.8274  139.6277  157.6422 C.ar    1  UNL1        0.1653
     11 H         141.1975  138.2185  161.4281 H       1  UNL1        0.1437
     12 H         142.6881  137.6122  160.8641 H       1  UNL1        0.1437
     13 C         138.9582  139.3005  161.4110 C.ar    1  UNL1        0.0195
     14 C         138.5797  137.9406  161.9181 C.ar    1  UNL1        0.0016
     15 C         138.5040  137.6849  163.3942 C.ar    1  UNL1        0.0001
     16 C         138.8070  138.7892  164.3631 C.ar    1  UNL1        0.0030
     17 C         138.7313  138.5335  165.8393 C.ar    1  UNL1        0.0369
     18 C         139.0342  139.6377  166.8082 C.ar    1  UNL1        0.1384
     19 C         139.4128  140.9977  166.3010 C.ar    1  UNL1        0.0369
     20 C         139.4884  141.2534  164.8249 C.ar    1  UNL1        0.0031
     21 C         139.1855  140.1491  163.8560 C.ar    1  UNL1        0.0002
     22 C         139.2611  140.4047  162.3799 C.ar    1  UNL1        0.0016
     23 O         138.9586  139.3821  168.2843 O.3     1  UNL1       -0.4792
     24 C         139.8103  140.1785  169.2281 C.3     1  UNL1        0.1659
     25 C         141.1762  140.0089  169.8243 C.3     1  UNL1        0.0436
     26 C         141.0147  141.3046  170.5626 C.3     1  UNL1        0.0074
     27 C         139.6488  141.4740  169.9664 C.3     1  UNL1        0.0436
     28 C         137.7385  140.8569  156.5149 C.3     1  UNL1        0.1291
     29 C         138.5112  146.6290  155.0705 C.3     1  UNL1        0.0896
     30 N         138.3180  145.1859  155.4316 N.3     1  UNL1       -0.2715
     31 C         139.3050  144.4985  156.3279 C.3     1  UNL1        0.0722
     32 C         139.1119  143.0555  156.6890 C.3     1  UNL1        0.0194
     33 C         137.9317  142.2999  156.1538 C.3     1  UNL1        0.0272
     34 C         136.9447  142.9874  155.2576 C.3     1  UNL1        0.0194
     35 C         137.1379  144.4304  154.8965 C.3     1  UNL1        0.0722
@<TRIPOS>BOND
     1    29    30    1
     2    30    31    1
     3    31    32    1
     4    32    33    1
     5    33    28    1
     6    28     1    1
     7     1     2   ar
     8     2     3   ar
     9     3    13    1
    10    13    14   ar
    11    14    15   ar
    12    15    16   ar
    13    16    17   ar
    14    17    18   ar
    15    18    23    1
    16    23    24    1
    17    24    25    1
    18    25    26    1
    19    26    27    1
    20    18    19   ar
    21    19    20   ar
    22    20    21   ar
    23    21    22   ar
    24     3     4   ar
    25     4     5   ar
    26     5     6    1
    27     5     7   ar
    28     7     8   ar
    29     8     9   ar
    30     9    10   ar
    31    33    34    1
    32    34    35    1
    33    35    30    1
    34    10     1   ar
    35    22    13   ar
    36    10     4   ar
    37    21    16   ar
    38    27    24    1
    39     6    11    1
    40     6    12    1
@<TRIPOS>MOLECULE
*****
 35 40 0 0 0
SMALL
GASTEIGER

@<TRIPOS>ATOM
      1 N         140.1662  141.6801  164.3046 N.ar    1  UNL1       -0.2340
      2 N         140.2548  140.4707  163.4216 N.ar    1  UNL1       -0.1679
      3 C         141.1545  140.8037  162.2685 C.ar    1  UNL1        0.1065
      4 C         141.6220  142.2188  162.4388 C.ar    1  UNL1        0.0860
      5 C         142.5249  143.0841  161.6106 C.ar    1  UNL1        0.1316
      6 N         143.1357  142.5424  160.3523 N.pl3   1  UNL1       -0.3425
      7 N         142.8171  144.4910  162.0408 N.ar    1  UNL1       -0.2093
      8 C         142.2063  145.0327  163.2992 C.ar    1  UNL1        0.2014
      9 N         141.3034  144.1673  164.1274 N.ar    1  UNL1       -0.2050
     10 C         141.0112  142.7604  163.6972 C.ar    1  UNL1        0.1653
     11 H         142.9439  141.6189  160.0699 H       1  UNL1        0.1437
     12 H         143.7283  143.1103  159.8087 H       1  UNL1        0.1437
     13 C         141.5222  139.8831  161.1427 C.ar    1  UNL1        0.0195
     14 C         142.8680  139.2210  161.1243 C.ar    1  UNL1        0.0016
     15 C         143.2356  138.3005  159.9985 C.ar    1  UNL1        0.0001
     16 C         142.2575  138.0421  158.8911 C.ar    1  UNL1        0.0030
     17 C         142.6252  137.1216  157.7652 C.ar    1  UNL1        0.0369
     18 C         141.6470  136.8632  156.6578 C.ar    1  UNL1        0.1384
     19 C         140.3011  137.5253  156.6762 C.ar    1  UNL1        0.0369
     20 C         139.9335  138.4458  157.8020 C.ar    1  UNL1        0.0031
     21 C         140.9116  138.7042  158.9094 C.ar    1  UNL1        0.0002
     22 C         140.5440  139.6247  160.0352 C.ar    1  UNL1        0.0016
     23 O         142.0146  135.9427  155.5320 O.3     1  UNL1       -0.4792
     24 C         142.1662  134.4719  155.7848 C.3     1  UNL1        0.1659
     25 C         143.0360  133.6325  156.6730 C.3     1  UNL1        0.0436
     26 C         142.3807  132.3919  156.1423 C.3     1  UNL1        0.0074
     27 C         141.5111  133.2314  155.2540 C.3     1  UNL1        0.0436
     28 C         139.3721  141.7898  165.5725 C.3     1  UNL1        0.1291
     29 C         142.0373  140.8784  170.8702 C.3     1  UNL1        0.0896
     30 N         141.3710  141.1062  169.5457 N.3     1  UNL1       -0.2715
     31 C         140.4052  140.0925  169.0078 C.3     1  UNL1        0.0722
     32 C         139.7388  140.3203  167.6834 C.3     1  UNL1        0.0194
     33 C         140.0384  141.5619  166.8969 C.3     1  UNL1        0.0272
     34 C         141.0043  142.5757  167.4348 C.3     1  UNL1        0.0194
     35 C         141.6706  142.3479  168.7592 C.3     1  UNL1        0.0722
@<TRIPOS>BOND
     1    29    30    1
     2    30    31    1
     3    31    32    1
     4    32    33    1
     5    33    28    1
     6    28     1    1
     7     1     2   ar
     8     2     3   ar
     9     3    13    1
    10    13    14   ar
    11    14    15   ar
    12    15    16   ar
    13    16    17   ar
    14    17    18   ar
    15    18    23    1
    16    23    24    1
    17    24    25    1
    18    25    26    1
    19    26    27    1
    20    18    19   ar
    21    19    20   ar
    22    20    21   ar
    23    21    22   ar
    24     3     4   ar
    25     4     5   ar
    26     5     6    1
    27     5     7   ar
    28     7     8   ar
    29     8     9   ar
    30     9    10   ar
    31    33    34    1
    32    34    35    1
    33    35    30    1
    34    10     1   ar
    35    22    13   ar
    36    10     4   ar
    37    21    16   ar
    38    27    24    1
    39     6    11    1
    40     6    12    1
@<TRIPOS>MOLECULE
*****
 35 40 0 0 0
SMALL
GASTEIGER

@<TRIPOS>ATOM
      1 N         142.6231  138.0347  157.2474 N.ar    1  UNL1       -0.2340
      2 N         141.9986  137.6171  158.5457 N.ar    1  UNL1       -0.1679
      3 C         142.2892  138.6804  159.5630 C.ar    1  UNL1        0.1065
      4 C         143.0933  139.7552  158.8934 C.ar    1  UNL1        0.0860
      5 C         143.6642  141.0457  159.4020 C.ar    1  UNL1        0.1316
      6 N         143.4578  141.4448  160.8331 N.pl3   1  UNL1       -0.3425
      7 N         144.4414  141.9372  158.4794 N.ar    1  UNL1       -0.2093
      8 C         144.6478  141.5381  157.0483 C.ar    1  UNL1        0.2014
      9 N         144.0769  140.2475  156.5398 N.ar    1  UNL1       -0.2050
     10 C         143.2996  139.3562  157.4623 C.ar    1  UNL1        0.1653
     11 H         142.9476  140.8597  161.4386 H       1  UNL1        0.1437
     12 H         143.8325  142.2918  161.1669 H       1  UNL1        0.1437
     13 C         141.8524  138.6707  160.9980 C.ar    1  UNL1        0.0195
     14 C         142.7571  138.1076  162.0536 C.ar    1  UNL1        0.0016
     15 C         142.3203  138.0980  163.4885 C.ar    1  UNL1        0.0001
     16 C         140.9787  138.6513  163.8679 C.ar    1  UNL1        0.0030
     17 C         140.5419  138.6416  165.3029 C.ar    1  UNL1        0.0369
     18 C         139.2003  139.1950  165.6822 C.ar    1  UNL1        0.1384
     19 C         138.2956  139.7581  164.6265 C.ar    1  UNL1        0.0369
     20 C         138.7324  139.7678  163.1916 C.ar    1  UNL1        0.0031
     21 C         140.0740  139.2144  162.8123 C.ar    1  UNL1        0.0002
     22 C         140.5108  139.2241  161.3774 C.ar    1  UNL1        0.0016
     23 O         138.7635  139.1853  167.1171 O.3     1  UNL1       -0.4792
     24 C         139.3975  140.1241  168.1005 C.3     1  UNL1        0.1659
     25 C         139.2156  140.4112  169.5615 C.3     1  UNL1        0.0436
     26 C         140.2940  141.4516  169.4912 C.3     1  UNL1        0.0074
     27 C         140.4757  141.1643  168.0302 C.3     1  UNL1        0.0436
     28 C         142.5788  137.2658  155.9602 C.3     1  UNL1        0.1291
     29 C         142.3927  131.2694  156.0522 C.3     1  UNL1        0.0896
     30 N         142.4392  132.7686  156.0292 N.3     1  UNL1       -0.2715
     31 C         143.5383  133.4959  156.7455 C.3     1  UNL1        0.0722
     32 C         143.5849  134.9950  156.7225 C.3     1  UNL1        0.0194
     33 C         142.5323  135.7668  155.9832 C.3     1  UNL1        0.0272
     34 C         141.4332  135.0394  155.2669 C.3     1  UNL1        0.0194
     35 C         141.3867  133.5403  155.2899 C.3     1  UNL1        0.0722
@<TRIPOS>BOND
     1    29    30    1
     2    30    31    1
     3    31    32    1
     4    32    33    1
     5    33    28    1
     6    28     1    1
     7     1     2   ar
     8     2     3   ar
     9     3    13    1
    10    13    14   ar
    11    14    15   ar
    12    15    16   ar
    13    16    17   ar
    14    17    18   ar
    15    18    23    1
    16    23    24    1
    17    24    25    1
    18    25    26    1
    19    26    27    1
    20    18    19   ar
    21    19    20   ar
    22    20    21   ar
    23    21    22   ar
    24     3     4   ar
    25     4     5   ar
    26     5     6    1
    27     5     7   ar
    28     7     8   ar
    29     8     9   ar
    30     9    10   ar
    31    33    34    1
    32    34    35    1
    33    35    30    1
    34    10     1   ar
    35    22    13   ar
    36    10     4   ar
    37    21    16   ar
    38    27    24    1
    39     6    11    1
    40     6    12    1
