@<TRIPOS>MOLECULE
*****
 33 36 0 0 0
SMALL
GASTEIGER

@<TRIPOS>ATOM
      1 C         141.3136  141.3173  166.4169 C.3     1  UNL1        0.1753
      2 C         141.8136  141.2107  167.8271 C.ar    1  UNL1        0.0091
      3 C         143.0785  141.6812  168.4817 C.ar    1  UNL1        0.0011
      4 C         143.3073  141.4253  169.9419 C.ar    1  UNL1        0.0364
      5 C         142.2712  140.6989  170.7474 C.ar    1  UNL1        0.1338
      6 O         142.5001  140.4430  172.2076 O.3     1  UNL1       -0.5055
      7 C         141.0063  140.2283  170.0927 C.ar    1  UNL1        0.0409
      8 C         140.7775  140.4842  168.6326 C.ar    1  UNL1        0.0547
      9 C         139.6372  140.1419  167.7202 C.2     1  UNL1        0.2497
     10 O         138.3853  139.4127  168.1090 O.2     1  UNL1       -0.2699
     11 N         139.9684  140.6568  166.3508 N.am    1  UNL1       -0.2619
     12 H         143.2902  140.7369  172.6166 H       1  UNL1        0.2922
     13 N         142.1547  143.4640  165.2192 N.am    1  UNL1       -0.3059
     14 C         142.0324  141.9699  165.2735 C.2     1  UNL1        0.2448
     15 O         142.6291  141.1286  164.1845 O.2     1  UNL1       -0.2729
     16 H         141.7631  144.0162  165.9340 H       1  UNL1        0.1494
     17 C         144.1741  143.9673  164.8084 C.3     1  UNL1        0.0196
     18 C         142.8736  144.1166  164.0758 C.3     1  UNL1        0.0569
     19 C         141.5732  144.2658  163.3433 C.3     1  UNL1        0.0196
     20 C         143.5925  144.7691  162.9325 C.3     1  UNL1        0.0196
     21 C         139.1060  140.5328  165.1298 C.3     1  UNL1        0.1212
     22 C         138.6550  141.7644  164.4021 C.ar    1  UNL1       -0.0023
     23 C         138.3161  143.0076  165.1700 C.ar    1  UNL1       -0.0026
     24 C         137.8650  144.2392  164.4423 C.ar    1  UNL1       -0.0003
     25 C         137.7528  144.2277  162.9465 C.ar    1  UNL1       -0.0000
     26 C         138.0916  142.9846  162.1785 C.ar    1  UNL1       -0.0003
     27 C         138.5427  141.7529  162.9063 C.ar    1  UNL1       -0.0024
     28 C         138.8816  140.5098  162.1383 C.ar    1  UNL1       -0.0003
     29 C         140.2200  140.3803  161.4735 C.ar    1  UNL1       -0.0000
     30 C         140.5588  139.1372  160.7055 C.ar    1  UNL1       -0.0000
     31 C         139.5592  138.0235  160.6023 C.ar    1  UNL1       -0.0000
     32 C         138.2208  138.1530  161.2671 C.ar    1  UNL1       -0.0000
     33 C         137.8820  139.3962  162.0351 C.ar    1  UNL1       -0.0000
@<TRIPOS>BOND
     1    17    18    1
     2    18    19    1
     3    18    20    1
     4    18    13    1
     5    13    14   am
     6    14    15    2
     7    14     1    1
     8     1     2    1
     9     2     3   ar
    10     3     4   ar
    11     4     5   ar
    12     5     6    1
    13     5     7   ar
    14     7     8   ar
    15     8     9    1
    16     9    10    2
    17     9    11   am
    18    11    21    1
    19    21    22    1
    20    22    23   ar
    21    23    24   ar
    22    24    25   ar
    23    25    26   ar
    24    26    27   ar
    25    27    28    1
    26    28    29   ar
    27    29    30   ar
    28    30    31   ar
    29    31    32   ar
    30    32    33   ar
    31    11     1    1
    32    27    22   ar
    33    33    28   ar
    34     8     2   ar
    35    13    16    1
    36     6    12    1
@<TRIPOS>MOLECULE
*****
 33 36 0 0 0
SMALL
GASTEIGER

@<TRIPOS>ATOM
      1 C         141.2823  141.6837  166.3546 C.3     1  UNL1        0.1753
      2 C         141.3739  142.0243  167.8125 C.ar    1  UNL1        0.0091
      3 C         140.8440  143.1799  168.6085 C.ar    1  UNL1        0.0011
      4 C         141.0990  143.2534  170.0848 C.ar    1  UNL1        0.0364
      5 C         141.8839  142.1712  170.7651 C.ar    1  UNL1        0.1338
      6 O         142.1389  142.2447  172.2415 O.3     1  UNL1       -0.5055
      7 C         142.4138  141.0156  169.9692 C.ar    1  UNL1        0.0409
      8 C         142.1588  140.9421  168.4928 C.ar    1  UNL1        0.0547
      9 C         142.5523  139.9328  167.4553 C.2     1  UNL1        0.2497
     10 O         143.3478  138.6843  167.6969 O.2     1  UNL1       -0.2699
     11 N         142.0106  140.3911  166.1338 N.am    1  UNL1       -0.2619
     12 H         141.8079  142.9666  172.7388 H       1  UNL1        0.2922
     13 N         139.0862  142.5090  165.2381 N.am    1  UNL1       -0.3059
     14 C         140.5848  142.4937  165.3022 C.2     1  UNL1        0.2448
     15 O         141.3858  143.2882  164.3138 O.2     1  UNL1       -0.2729
     16 H         138.5604  141.9875  165.8869 H       1  UNL1        0.1494
     17 C         138.4011  144.5115  165.0955 C.3     1  UNL1        0.0196
     18 C         138.3887  143.3189  164.1857 C.3     1  UNL1        0.0569
     19 C         138.3764  142.1263  163.2761 C.3     1  UNL1        0.0196
     20 C         137.6913  144.1289  163.1334 C.3     1  UNL1        0.0196
     21 C         142.1693  139.6815  164.8218 C.3     1  UNL1        0.1212
     22 C         140.9940  138.9913  164.1955 C.ar    1  UNL1       -0.0023
     23 C         139.9855  138.2942  165.0598 C.ar    1  UNL1       -0.0026
     24 C         138.8102  137.6040  164.4334 C.ar    1  UNL1       -0.0003
     25 C         138.6434  137.6109  162.9428 C.ar    1  UNL1       -0.0000
     26 C         139.6518  138.3080  162.0784 C.ar    1  UNL1       -0.0003
     27 C         140.8272  138.9982  162.7048 C.ar    1  UNL1       -0.0024
     28 C         141.8356  139.6953  161.8405 C.ar    1  UNL1       -0.0003
     29 C         142.9988  138.9317  161.2802 C.ar    1  UNL1       -0.0000
     30 C         144.0073  139.6288  160.4159 C.ar    1  UNL1       -0.0000
     31 C         143.8525  141.0895  160.1118 C.ar    1  UNL1       -0.0000
     32 C         142.6893  141.8531  160.6721 C.ar    1  UNL1       -0.0000
     33 C         141.6808  141.1559  161.5364 C.ar    1  UNL1       -0.0000
@<TRIPOS>BOND
     1    17    18    1
     2    18    19    1
     3    18    20    1
     4    18    13    1
     5    13    14   am
     6    14    15    2
     7    14     1    1
     8     1     2    1
     9     2     3   ar
    10     3     4   ar
    11     4     5   ar
    12     5     6    1
    13     5     7   ar
    14     7     8   ar
    15     8     9    1
    16     9    10    2
    17     9    11   am
    18    11    21    1
    19    21    22    1
    20    22    23   ar
    21    23    24   ar
    22    24    25   ar
    23    25    26   ar
    24    26    27   ar
    25    27    28    1
    26    28    29   ar
    27    29    30   ar
    28    30    31   ar
    29    31    32   ar
    30    32    33   ar
    31    11     1    1
    32    27    22   ar
    33    33    28   ar
    34     8     2   ar
    35    13    16    1
    36     6    12    1
@<TRIPOS>MOLECULE
*****
 33 36 0 0 0
SMALL
GASTEIGER

@<TRIPOS>ATOM
      1 C         141.8224  143.0760  163.3475 C.3     1  UNL1        0.1753
      2 C         141.6188  143.6847  161.9918 C.ar    1  UNL1        0.0091
      3 C         142.4310  143.6241  160.7322 C.ar    1  UNL1        0.0011
      4 C         141.9666  144.3504  159.5047 C.ar    1  UNL1        0.0364
      5 C         140.6899  145.1373  159.5368 C.ar    1  UNL1        0.1338
      6 O         140.2254  145.8636  158.3093 O.3     1  UNL1       -0.5055
      7 C         139.8777  145.1978  160.7964 C.ar    1  UNL1        0.0409
      8 C         140.3421  144.4715  162.0239 C.ar    1  UNL1        0.0547
      9 C         139.7567  144.3491  163.3995 C.2     1  UNL1        0.2497
     10 O         138.4805  144.9786  163.8737 O.2     1  UNL1       -0.2699
     11 N         140.6715  143.4866  164.2175 N.am    1  UNL1       -0.2619
     12 H         140.7328  145.8258  157.5224 H       1  UNL1        0.2922
     13 N         142.8400  140.7153  163.7241 N.am    1  UNL1       -0.3059
     14 C         142.9745  142.2089  163.7607 C.2     1  UNL1        0.2448
     15 O         144.2611  142.8352  164.2104 O.2     1  UNL1       -0.2729
     16 H         141.9956  140.3041  163.4290 H       1  UNL1        0.1494
     17 C         143.3822  139.6862  165.4981 C.3     1  UNL1        0.0196
     18 C         143.9922  139.8482  164.1373 C.3     1  UNL1        0.0569
     19 C         144.6021  140.0102  162.7765 C.3     1  UNL1        0.0196
     20 C         145.1442  138.9811  164.5504 C.3     1  UNL1        0.0196
     21 C         140.4707  143.1022  165.6535 C.3     1  UNL1        0.1212
     22 C         139.8104  141.7996  165.9959 C.ar    1  UNL1       -0.0023
     23 C         138.9091  141.1312  165.0006 C.ar    1  UNL1       -0.0026
     24 C         138.2488  139.8286  165.3430 C.ar    1  UNL1       -0.0003
     25 C         138.4898  139.1945  166.6808 C.ar    1  UNL1       -0.0000
     26 C         139.3911  139.8629  167.6762 C.ar    1  UNL1       -0.0003
     27 C         140.0515  141.1655  167.3338 C.ar    1  UNL1       -0.0024
     28 C         140.9528  141.8339  168.3291 C.ar    1  UNL1       -0.0003
     29 C         142.3888  141.4148  168.4404 C.ar    1  UNL1       -0.0000
     30 C         143.2901  142.0832  169.4358 C.ar    1  UNL1       -0.0000
     31 C         142.7555  143.1707  170.3199 C.ar    1  UNL1       -0.0000
     32 C         141.3195  143.5898  170.2086 C.ar    1  UNL1       -0.0000
     33 C         140.4182  142.9213  169.2132 C.ar    1  UNL1       -0.0000
@<TRIPOS>BOND
     1    17    18    1
     2    18    19    1
     3    18    20    1
     4    18    13    1
     5    13    14   am
     6    14    15    2
     7    14     1    1
     8     1     2    1
     9     2     3   ar
    10     3     4   ar
    11     4     5   ar
    12     5     6    1
    13     5     7   ar
    14     7     8   ar
    15     8     9    1
    16     9    10    2
    17     9    11   am
    18    11    21    1
    19    21    22    1
    20    22    23   ar
    21    23    24   ar
    22    24    25   ar
    23    25    26   ar
    24    26    27   ar
    25    27    28    1
    26    28    29   ar
    27    29    30   ar
    28    30    31   ar
    29    31    32   ar
    30    32    33   ar
    31    11     1    1
    32    27    22   ar
    33    33    28   ar
    34     8     2   ar
    35    13    16    1
    36     6    12    1
@<TRIPOS>MOLECULE
*****
 33 36 0 0 0
SMALL
GASTEIGER

@<TRIPOS>ATOM
      1 C         141.9664  141.2137  164.3401 C.3     1  UNL1        0.1753
      2 C         142.2749  141.2025  165.8080 C.ar    1  UNL1        0.0091
      3 C         142.4885  142.3096  166.7972 C.ar    1  UNL1        0.0011
      4 C         142.7883  141.9867  168.2310 C.ar    1  UNL1        0.0364
      5 C         142.8744  140.5567  168.6756 C.ar    1  UNL1        0.1338
      6 O         143.1741  140.2339  170.1095 O.3     1  UNL1       -0.5055
      7 C         142.6607  139.4496  167.6864 C.ar    1  UNL1        0.0409
      8 C         142.3610  139.7725  166.2526 C.ar    1  UNL1        0.0547
      9 C         142.1057  138.8999  165.0595 C.2     1  UNL1        0.2497
     10 O         142.0960  137.4000  165.0500 O.2     1  UNL1       -0.2699
     11 N         141.8619  139.7906  163.8775 N.am    1  UNL1       -0.2619
     12 H         143.3075  140.9255  170.7274 H       1  UNL1        0.2922
     13 N         140.7130  143.4251  163.8029 N.am    1  UNL1       -0.3059
     14 C         141.7930  142.4338  163.4849 C.2     1  UNL1        0.2448
     15 O         142.6993  142.6626  162.3119 O.2     1  UNL1       -0.2729
     16 H         140.1181  143.2750  164.5728 H       1  UNL1        0.1494
     17 C         141.6284  145.3367  163.7135 C.3     1  UNL1        0.0196
     18 C         140.5395  144.6453  162.9477 C.3     1  UNL1        0.0569
     19 C         139.4507  143.9538  162.1820 C.3     1  UNL1        0.0196
     20 C         140.3661  145.8653  162.0926 C.3     1  UNL1        0.0196
     21 C         141.5655  139.3378  162.4785 C.3     1  UNL1        0.1212
     22 C         140.4319  139.9554  161.7146 C.ar    1  UNL1       -0.0023
     23 C         140.6792  140.5614  160.3649 C.ar    1  UNL1       -0.0026
     24 C         139.5457  141.1790  159.6009 C.ar    1  UNL1       -0.0003
     25 C         138.1648  141.1906  160.1867 C.ar    1  UNL1       -0.0000
     26 C         137.9175  140.5847  161.5363 C.ar    1  UNL1       -0.0003
     27 C         139.0511  139.9670  162.3003 C.ar    1  UNL1       -0.0024
     28 C         138.8038  139.3610  163.6499 C.ar    1  UNL1       -0.0003
     29 C         138.5199  140.2448  164.8283 C.ar    1  UNL1       -0.0000
     30 C         138.2725  139.6388  166.1779 C.ar    1  UNL1       -0.0000
     31 C         138.3091  138.1490  166.3493 C.ar    1  UNL1       -0.0000
     32 C         138.5930  137.2653  165.1710 C.ar    1  UNL1       -0.0000
     33 C         138.8403  137.8713  163.8213 C.ar    1  UNL1       -0.0000
@<TRIPOS>BOND
     1    17    18    1
     2    18    19    1
     3    18    20    1
     4    18    13    1
     5    13    14   am
     6    14    15    2
     7    14     1    1
     8     1     2    1
     9     2     3   ar
    10     3     4   ar
    11     4     5   ar
    12     5     6    1
    13     5     7   ar
    14     7     8   ar
    15     8     9    1
    16     9    10    2
    17     9    11   am
    18    11    21    1
    19    21    22    1
    20    22    23   ar
    21    23    24   ar
    22    24    25   ar
    23    25    26   ar
    24    26    27   ar
    25    27    28    1
    26    28    29   ar
    27    29    30   ar
    28    30    31   ar
    29    31    32   ar
    30    32    33   ar
    31    11     1    1
    32    27    22   ar
    33    33    28   ar
    34     8     2   ar
    35    13    16    1
    36     6    12    1
@<TRIPOS>MOLECULE
*****
 33 36 0 0 0
SMALL
GASTEIGER

@<TRIPOS>ATOM
      1 C         141.2373  141.7114  166.3117 C.3     1  UNL1        0.1753
      2 C         141.3239  142.0326  167.7744 C.ar    1  UNL1        0.0091
      3 C         140.7597  143.1580  168.5899 C.ar    1  UNL1        0.0011
      4 C         141.0185  143.2174  170.0662 C.ar    1  UNL1        0.0364
      5 C         141.8415  142.1515  170.7269 C.ar    1  UNL1        0.1338
      6 O         142.1003  142.2110  172.2033 O.3     1  UNL1       -0.5055
      7 C         142.4057  141.0262  169.9113 C.ar    1  UNL1        0.0409
      8 C         142.1469  140.9667  168.4351 C.ar    1  UNL1        0.0547
      9 C         142.5689  139.9868  167.3807 C.2     1  UNL1        0.2497
     10 O         143.4060  138.7616  167.6002 O.2     1  UNL1       -0.2699
     11 N         142.0067  140.4470  166.0684 N.am    1  UNL1       -0.2619
     12 H         141.7478  142.9140  172.7127 H       1  UNL1        0.2922
     13 N         139.0258  142.7101  165.3830 N.am    1  UNL1       -0.3059
     14 C         140.5090  142.5138  165.2745 C.2     1  UNL1        0.2448
     15 O         141.2638  143.1199  164.1287 O.2     1  UNL1       -0.2729
     16 H         138.5304  142.3123  166.1350 H       1  UNL1        0.1494
     17 C         138.7072  144.7787  165.0378 C.3     1  UNL1        0.0196
     18 C         138.2976  143.5124  164.3457 C.3     1  UNL1        0.0569
     19 C         137.8880  142.2462  163.6537 C.3     1  UNL1        0.0196
     20 C         137.5694  144.3148  163.3086 C.3     1  UNL1        0.0196
     21 C         142.1830  139.7629  164.7452 C.3     1  UNL1        0.1212
     22 C         143.0928  140.3551  163.7101 C.ar    1  UNL1       -0.0023
     23 C         144.4383  140.8851  164.1090 C.ar    1  UNL1       -0.0026
     24 C         145.3481  141.4773  163.0739 C.ar    1  UNL1       -0.0003
     25 C         144.9125  141.5396  161.6398 C.ar    1  UNL1       -0.0000
     26 C         143.5672  141.0096  161.2409 C.ar    1  UNL1       -0.0003
     27 C         142.6573  140.4174  162.2760 C.ar    1  UNL1       -0.0024
     28 C         141.3120  139.8875  161.8771 C.ar    1  UNL1       -0.0003
     29 C         140.9791  138.4419  162.0997 C.ar    1  UNL1       -0.0000
     30 C         139.6338  137.9120  161.7008 C.ar    1  UNL1       -0.0000
     31 C         138.6212  138.8277  161.0792 C.ar    1  UNL1       -0.0000
     32 C         138.9540  140.2732  160.8566 C.ar    1  UNL1       -0.0000
     33 C         140.2994  140.8031  161.2556 C.ar    1  UNL1       -0.0000
@<TRIPOS>BOND
     1    17    18    1
     2    18    19    1
     3    18    20    1
     4    18    13    1
     5    13    14   am
     6    14    15    2
     7    14     1    1
     8     1     2    1
     9     2     3   ar
    10     3     4   ar
    11     4     5   ar
    12     5     6    1
    13     5     7   ar
    14     7     8   ar
    15     8     9    1
    16     9    10    2
    17     9    11   am
    18    11    21    1
    19    21    22    1
    20    22    23   ar
    21    23    24   ar
    22    24    25   ar
    23    25    26   ar
    24    26    27   ar
    25    27    28    1
    26    28    29   ar
    27    29    30   ar
    28    30    31   ar
    29    31    32   ar
    30    32    33   ar
    31    11     1    1
    32    27    22   ar
    33    33    28   ar
    34     8     2   ar
    35    13    16    1
    36     6    12    1
@<TRIPOS>MOLECULE
*****
 33 36 0 0 0
SMALL
GASTEIGER

@<TRIPOS>ATOM
      1 C         141.3987  141.3877  166.4726 C.3     1  UNL1        0.1753
      2 C         141.3311  141.7284  167.9318 C.ar    1  UNL1        0.0091
      3 C         142.1336  142.6689  168.7811 C.ar    1  UNL1        0.0011
      4 C         141.8302  142.8028  170.2440 C.ar    1  UNL1        0.0364
      5 C         140.7244  141.9962  170.8575 C.ar    1  UNL1        0.1338
      6 O         140.4210  142.1301  172.3205 O.3     1  UNL1       -0.5055
      7 C         139.9218  141.0557  170.0082 C.ar    1  UNL1        0.0409
      8 C         140.2252  140.9218  168.5453 C.ar    1  UNL1        0.0547
      9 C         139.6094  140.0826  167.4653 C.2     1  UNL1        0.2497
     10 O         138.4686  139.1238  167.6363 O.2     1  UNL1       -0.2699
     11 N         140.3346  140.3705  166.1842 N.am    1  UNL1       -0.2619
     12 H         140.9223  142.7176  172.8510 H       1  UNL1        0.2922
     13 N         142.1605  143.3563  164.9577 N.am    1  UNL1       -0.3059
     14 C         142.3614  141.9631  165.4765 C.2     1  UNL1        0.2448
     15 O         143.5249  141.1457  164.9993 O.2     1  UNL1       -0.2729
     16 H         141.3968  143.8928  165.2710 H       1  UNL1        0.1494
     17 C         142.0860  143.8041  162.8856 C.3     1  UNL1        0.0196
     18 C         143.1232  143.9317  163.9617 C.3     1  UNL1        0.0569
     19 C         144.1603  144.0593  165.0379 C.3     1  UNL1        0.0196
     20 C         144.0858  144.5071  162.9657 C.3     1  UNL1        0.0196
     21 C         140.0464  139.7502  164.8492 C.3     1  UNL1        0.1212
     22 C         139.3687  140.5539  163.7794 C.ar    1  UNL1       -0.0023
     23 C         138.1293  141.3357  164.1002 C.ar    1  UNL1       -0.0026
     24 C         137.4516  142.1394  163.0303 C.ar    1  UNL1       -0.0003
     25 C         138.0132  142.1615  161.6396 C.ar    1  UNL1       -0.0000
     26 C         139.2526  141.3798  161.3188 C.ar    1  UNL1       -0.0003
     27 C         139.9304  140.5760  162.3887 C.ar    1  UNL1       -0.0024
     28 C         141.1697  139.7944  162.0678 C.ar    1  UNL1       -0.0003
     29 C         141.0860  138.3131  161.8470 C.ar    1  UNL1       -0.0000
     30 C         142.3254  137.5314  161.5262 C.ar    1  UNL1       -0.0000
     31 C         143.6485  138.2310  161.4261 C.ar    1  UNL1       -0.0000
     32 C         143.7322  139.7123  161.6470 C.ar    1  UNL1       -0.0000
     33 C         142.4927  140.4940  161.9678 C.ar    1  UNL1       -0.0000
@<TRIPOS>BOND
     1    17    18    1
     2    18    19    1
     3    18    20    1
     4    18    13    1
     5    13    14   am
     6    14    15    2
     7    14     1    1
     8     1     2    1
     9     2     3   ar
    10     3     4   ar
    11     4     5   ar
    12     5     6    1
    13     5     7   ar
    14     7     8   ar
    15     8     9    1
    16     9    10    2
    17     9    11   am
    18    11    21    1
    19    21    22    1
    20    22    23   ar
    21    23    24   ar
    22    24    25   ar
    23    25    26   ar
    24    26    27   ar
    25    27    28    1
    26    28    29   ar
    27    29    30   ar
    28    30    31   ar
    29    31    32   ar
    30    32    33   ar
    31    11     1    1
    32    27    22   ar
    33    33    28   ar
    34     8     2   ar
    35    13    16    1
    36     6    12    1
@<TRIPOS>MOLECULE
*****
 33 36 0 0 0
SMALL
GASTEIGER

@<TRIPOS>ATOM
      1 C         140.5919  141.3244  162.8863 C.3     1  UNL1        0.1753
      2 C         140.4876  142.7584  162.4589 C.ar    1  UNL1        0.0091
      3 C         140.6641  143.4239  161.1262 C.ar    1  UNL1        0.0011
      4 C         140.4932  144.9088  161.0010 C.ar    1  UNL1        0.0364
      5 C         140.1459  145.7283  162.2084 C.ar    1  UNL1        0.1338
      6 O         139.9750  147.2133  162.0831 O.3     1  UNL1       -0.5055
      7 C         139.9694  145.0628  163.5411 C.ar    1  UNL1        0.0409
      8 C         140.1403  143.5779  163.6663 C.ar    1  UNL1        0.0547
      9 C         140.0299  142.6503  164.8399 C.2     1  UNL1        0.2497
     10 O         139.6986  143.0460  166.2483 O.2     1  UNL1       -0.2699
     11 N         140.3090  141.2576  164.3579 N.am    1  UNL1       -0.2619
     12 H         140.0852  147.6290  161.2507 H       1  UNL1        0.2922
     13 N         142.3533  139.8002  161.7354 N.am    1  UNL1       -0.3059
     14 C         140.9212  140.1614  161.9981 C.2     1  UNL1        0.2448
     15 O         139.8187  139.3596  161.3725 O.2     1  UNL1       -0.2729
     16 H         143.0770  140.3264  162.1460 H       1  UNL1        0.1494
     17 C         142.5398  137.7056  162.0142 C.3     1  UNL1        0.0196
     18 C         142.6826  138.6372  160.8472 C.3     1  UNL1        0.0569
     19 C         142.8254  139.5688  159.6803 C.3     1  UNL1        0.0196
     20 C         143.0119  137.4742  159.9590 C.3     1  UNL1        0.0196
     21 C         140.3058  140.0160  165.1996 C.3     1  UNL1        0.1212
     22 C         140.7079  140.0873  166.6429 C.ar    1  UNL1       -0.0023
     23 C         139.6708  139.9512  167.7181 C.ar    1  UNL1       -0.0026
     24 C         140.0730  140.0225  169.1614 C.ar    1  UNL1       -0.0003
     25 C         141.5123  140.2299  169.5295 C.ar    1  UNL1       -0.0000
     26 C         142.5493  140.3660  168.4544 C.ar    1  UNL1       -0.0003
     27 C         142.1472  140.2947  167.0111 C.ar    1  UNL1       -0.0024
     28 C         143.1843  140.4308  165.9359 C.ar    1  UNL1       -0.0003
     29 C         143.5716  141.7907  165.4353 C.ar    1  UNL1       -0.0000
     30 C         144.6087  141.9268  164.3602 C.ar    1  UNL1       -0.0000
     31 C         145.2585  140.7029  163.7857 C.ar    1  UNL1       -0.0000
     32 C         144.8711  139.3430  164.2863 C.ar    1  UNL1       -0.0000
     33 C         143.8340  139.2070  165.3614 C.ar    1  UNL1       -0.0000
@<TRIPOS>BOND
     1    17    18    1
     2    18    19    1
     3    18    20    1
     4    18    13    1
     5    13    14   am
     6    14    15    2
     7    14     1    1
     8     1     2    1
     9     2     3   ar
    10     3     4   ar
    11     4     5   ar
    12     5     6    1
    13     5     7   ar
    14     7     8   ar
    15     8     9    1
    16     9    10    2
    17     9    11   am
    18    11    21    1
    19    21    22    1
    20    22    23   ar
    21    23    24   ar
    22    24    25   ar
    23    25    26   ar
    24    26    27   ar
    25    27    28    1
    26    28    29   ar
    27    29    30   ar
    28    30    31   ar
    29    31    32   ar
    30    32    33   ar
    31    11     1    1
    32    27    22   ar
    33    33    28   ar
    34     8     2   ar
    35    13    16    1
    36     6    12    1
@<TRIPOS>MOLECULE
*****
 33 36 0 0 0
SMALL
GASTEIGER

@<TRIPOS>ATOM
      1 C         140.1582  140.3839  166.0032 C.3     1  UNL1        0.1753
      2 C         140.0451  140.5241  167.4924 C.ar    1  UNL1        0.0091
      3 C         139.0323  140.0143  168.4744 C.ar    1  UNL1        0.0011
      4 C         139.1839  140.3202  169.9350 C.ar    1  UNL1        0.0364
      5 C         140.3482  141.1359  170.4136 C.ar    1  UNL1        0.1338
      6 O         140.4997  141.4418  171.8743 O.3     1  UNL1       -0.5055
      7 C         141.3610  141.6456  169.4316 C.ar    1  UNL1        0.0409
      8 C         141.2094  141.3397  167.9710 C.ar    1  UNL1        0.0547
      9 C         142.0421  141.7037  166.7776 C.2     1  UNL1        0.2497
     10 O         143.3031  142.5158  166.7970 O.2     1  UNL1       -0.2699
     11 N         141.3925  141.1130  165.5614 N.am    1  UNL1       -0.2619
     12 H         139.8671  141.1234  172.4877 H       1  UNL1        0.2922
     13 N         139.4777  139.5438  163.6407 N.am    1  UNL1       -0.3059
     14 C         139.2045  139.6446  165.1123 C.2     1  UNL1        0.2448
     15 O         137.9777  139.0059  165.6927 O.2     1  UNL1       -0.2729
     16 H         140.2829  139.9630  163.2597 H       1  UNL1        0.1494
     17 C         137.7822  140.0810  162.4846 C.3     1  UNL1        0.0196
     18 C         138.5240  138.8044  162.7498 C.3     1  UNL1        0.0569
     19 C         139.2658  137.5280  163.0150 C.3     1  UNL1        0.0196
     20 C         137.5703  138.0651  161.8589 C.3     1  UNL1        0.0196
     21 C         141.8897  141.2307  164.1511 C.3     1  UNL1        0.1212
     22 C         142.6379  142.4570  163.7196 C.ar    1  UNL1       -0.0023
     23 C         144.1120  142.3810  163.4523 C.ar    1  UNL1       -0.0026
     24 C         144.8602  143.6073  163.0207 C.ar    1  UNL1       -0.0003
     25 C         144.1344  144.9097  162.8564 C.ar    1  UNL1       -0.0000
     26 C         142.6603  144.9857  163.1236 C.ar    1  UNL1       -0.0003
     27 C         141.9121  143.7593  163.5552 C.ar    1  UNL1       -0.0024
     28 C         140.4380  143.8354  163.8224 C.ar    1  UNL1       -0.0003
     29 C         139.4606  143.4790  162.7418 C.ar    1  UNL1       -0.0000
     30 C         137.9866  143.5551  163.0090 C.ar    1  UNL1       -0.0000
     31 C         137.4899  143.9875  164.3568 C.ar    1  UNL1       -0.0000
     32 C         138.4674  144.3438  165.4374 C.ar    1  UNL1       -0.0000
     33 C         139.9415  144.2677  165.1701 C.ar    1  UNL1       -0.0000
@<TRIPOS>BOND
     1    17    18    1
     2    18    19    1
     3    18    20    1
     4    18    13    1
     5    13    14   am
     6    14    15    2
     7    14     1    1
     8     1     2    1
     9     2     3   ar
    10     3     4   ar
    11     4     5   ar
    12     5     6    1
    13     5     7   ar
    14     7     8   ar
    15     8     9    1
    16     9    10    2
    17     9    11   am
    18    11    21    1
    19    21    22    1
    20    22    23   ar
    21    23    24   ar
    22    24    25   ar
    23    25    26   ar
    24    26    27   ar
    25    27    28    1
    26    28    29   ar
    27    29    30   ar
    28    30    31   ar
    29    31    32   ar
    30    32    33   ar
    31    11     1    1
    32    27    22   ar
    33    33    28   ar
    34     8     2   ar
    35    13    16    1
    36     6    12    1
@<TRIPOS>MOLECULE
*****
 33 36 0 0 0
SMALL
GASTEIGER

@<TRIPOS>ATOM
      1 C         138.9960  141.6716  164.2161 C.3     1  UNL1        0.1753
      2 C         139.5085  141.8371  165.6161 C.ar    1  UNL1        0.0091
      3 C         140.1347  143.0015  166.3246 C.ar    1  UNL1        0.0011
      4 C         140.5567  142.8686  167.7579 C.ar    1  UNL1        0.0364
      5 C         140.3525  141.5713  168.4826 C.ar    1  UNL1        0.1338
      6 O         140.7745  141.4384  169.9159 O.3     1  UNL1       -0.5055
      7 C         139.7263  140.4069  167.7741 C.ar    1  UNL1        0.0409
      8 C         139.3043  140.5398  166.3409 C.ar    1  UNL1        0.0547
      9 C         138.6656  139.5726  165.3888 C.2     1  UNL1        0.2497
     10 O         138.2844  138.1547  165.6960 O.2     1  UNL1       -0.2699
     11 N         138.4751  140.2720  164.0756 N.am    1  UNL1       -0.2619
     12 H         141.1657  142.1658  170.3585 H       1  UNL1        0.2922
     13 N         140.3032  143.3028  162.6731 N.am    1  UNL1       -0.3059
     14 C         139.0033  142.7214  163.1448 C.2     1  UNL1        0.2448
     15 O         137.7108  143.1900  162.5451 O.2     1  UNL1       -0.2729
     16 H         141.1516  142.9952  163.0667 H       1  UNL1        0.1494
     17 C         140.4169  143.2834  160.5549 C.3     1  UNL1        0.0196
     18 C         140.3104  144.3526  161.6017 C.3     1  UNL1        0.0569
     19 C         140.2039  145.4216  162.6485 C.3     1  UNL1        0.0196
     20 C         140.3177  145.4023  160.5304 C.3     1  UNL1        0.0196
     21 C         137.8699  139.6765  162.8390 C.3     1  UNL1        0.1212
     22 C         138.5869  139.7852  161.5260 C.ar    1  UNL1       -0.0023
     23 C         137.8621  140.2948  160.3156 C.ar    1  UNL1       -0.0026
     24 C         138.5791  140.4035  159.0026 C.ar    1  UNL1       -0.0003
     25 C         140.0208  140.0026  158.8999 C.ar    1  UNL1       -0.0000
     26 C         140.7456  139.4930  160.1102 C.ar    1  UNL1       -0.0003
     27 C         140.0287  139.3843  161.4233 C.ar    1  UNL1       -0.0024
     28 C         140.7535  138.8747  162.6336 C.ar    1  UNL1       -0.0003
     29 C         140.5183  137.4732  163.1138 C.ar    1  UNL1       -0.0000
     30 C         141.2431  136.9636  164.3242 C.ar    1  UNL1       -0.0000
     31 C         142.2031  137.8554  165.0543 C.ar    1  UNL1       -0.0000
     32 C         142.4382  139.2569  164.5741 C.ar    1  UNL1       -0.0000
     33 C         141.7134  139.7665  163.3637 C.ar    1  UNL1       -0.0000
@<TRIPOS>BOND
     1    17    18    1
     2    18    19    1
     3    18    20    1
     4    18    13    1
     5    13    14   am
     6    14    15    2
     7    14     1    1
     8     1     2    1
     9     2     3   ar
    10     3     4   ar
    11     4     5   ar
    12     5     6    1
    13     5     7   ar
    14     7     8   ar
    15     8     9    1
    16     9    10    2
    17     9    11   am
    18    11    21    1
    19    21    22    1
    20    22    23   ar
    21    23    24   ar
    22    24    25   ar
    23    25    26   ar
    24    26    27   ar
    25    27    28    1
    26    28    29   ar
    27    29    30   ar
    28    30    31   ar
    29    31    32   ar
    30    32    33   ar
    31    11     1    1
    32    27    22   ar
    33    33    28   ar
    34     8     2   ar
    35    13    16    1
    36     6    12    1
