@<TRIPOS>MOLECULE
*****
 33 35 0 0 0
SMALL
GASTEIGER

@<TRIPOS>ATOM
      1 C         139.8290  138.4023  163.0731 C.2     1  UNL1        0.2223
      2 O         138.8672  137.2941  163.3842 O.2     1  UNL1       -0.2751
      3 N         139.9996  139.5397  164.0361 N.am    1  UNL1       -0.3004
      4 H         140.6308  140.2671  163.8319 H       1  UNL1        0.1497
      5 N         142.2024  138.3151  159.2510 N.pl3   1  UNL1       -0.2781
      6 C         140.7383  138.6392  159.2173 C.3     1  UNL1        0.0941
      7 C         139.9471  138.6683  160.4914 C.3     1  UNL1        0.0306
      8 C         140.6201  138.3733  161.7991 C.3     1  UNL1        0.0799
      9 C         142.0843  138.0491  161.8327 C.3     1  UNL1        0.0306
     10 C         142.8754  138.0200  160.5586 C.3     1  UNL1        0.0941
     11 C         143.8611  136.9946  155.8961 C.ar    1  UNL1        0.2204
     12 N         144.5759  138.2277  155.4288 N.ar    1  UNL1       -0.1988
     13 C         144.4996  139.4900  156.2356 C.ar    1  UNL1        0.1453
     14 C         145.2145  140.7231  155.7683 C.3     1  UNL1        0.0739
     15 N         143.7085  139.5191  157.5096 N.ar    1  UNL1       -0.1986
     16 C         142.9936  138.2860  157.9769 C.ar    1  UNL1        0.2236
     17 N         143.0699  137.0237  157.1701 N.ar    1  UNL1       -0.1809
     18 C         143.4828  134.4329  155.6849 C.3     1  UNL1        0.1108
     19 N         143.9374  135.7323  155.0893 N.pl3   1  UNL1       -0.3012
     20 H         144.2858  135.7568  154.1689 H       1  UNL1        0.1497
     21 C         139.2085  139.5688  165.3102 C.3     1  UNL1        0.1193
     22 C         139.6056  140.4983  166.4185 C.ar    1  UNL1        0.0317
     23 C         139.7289  139.9827  167.8217 C.ar    1  UNL1        0.0009
     24 C         140.1260  140.9122  168.9300 C.ar    1  UNL1        0.0066
     25 C         140.3998  142.3572  168.6352 C.ar    1  UNL1        0.0376
     26 BR        140.7969  143.2867  169.7435 Br      1  UNL1       -0.0489
     27 C         140.2764  142.8728  167.2319 C.ar    1  UNL1        0.0436
     28 C         139.8793  141.9433  166.1236 C.ar    1  UNL1        0.1449
     29 O         139.7559  142.4588  164.7204 O.3     1  UNL1       -0.4047
     30 C         138.6931  143.4613  164.3804 C.3     1  UNL1        0.5753
     31 F         137.6304  144.4638  164.0405 F       1  UNL1       -0.1328
     32 F         139.7360  144.5353  164.2874 F       1  UNL1       -0.1328
     33 F         137.6502  142.3873  164.4735 F       1  UNL1       -0.1328
@<TRIPOS>BOND
     1    18    19    1
     2    19    11    1
     3    11    12   ar
     4    12    13   ar
     5    13    14    1
     6    13    15   ar
     7    15    16   ar
     8    16     5    1
     9     5     6    1
    10     6     7    1
    11     7     8    1
    12     8     1    1
    13     1     2    2
    14     1     3   am
    15     3    21    1
    16    21    22    1
    17    22    23   ar
    18    23    24   ar
    19    24    25   ar
    20    25    26    1
    21    25    27   ar
    22    27    28   ar
    23    28    29    1
    24    29    30    1
    25    30    31    1
    26    30    32    1
    27    30    33    1
    28     8     9    1
    29     9    10    1
    30    16    17   ar
    31    17    11   ar
    32    10     5    1
    33    28    22   ar
    34    19    20    1
    35     3     4    1
@<TRIPOS>MOLECULE
*****
 33 35 0 0 0
SMALL
GASTEIGER

@<TRIPOS>ATOM
      1 C         140.5438  138.6068  162.5771 C.2     1  UNL1        0.2223
      2 O         140.8529  137.1390  162.5766 O.2     1  UNL1       -0.2751
      3 N         140.9479  139.4580  163.7442 N.am    1  UNL1       -0.3004
      4 H         140.7450  140.4214  163.7445 H       1  UNL1        0.1497
      5 N         138.4039  140.4568  159.0773 N.pl3   1  UNL1       -0.2781
      6 C         137.6195  139.9225  160.2389 C.3     1  UNL1        0.0941
      7 C         138.3328  139.3058  161.4055 C.3     1  UNL1        0.0306
      8 C         139.8305  139.2235  161.4105 C.3     1  UNL1        0.0799
      9 C         140.6149  139.7578  160.2489 C.3     1  UNL1        0.0306
     10 C         139.9016  140.3744  159.0824 C.3     1  UNL1        0.0941
     11 C         135.7701  141.0165  156.1618 C.ar    1  UNL1        0.2204
     12 N         136.2640  142.3067  155.5775 N.ar    1  UNL1       -0.1988
     13 C         137.4711  142.9803  156.1598 C.ar    1  UNL1        0.1453
     14 C         137.9650  144.2706  155.5755 C.3     1  UNL1        0.0739
     15 N         138.1844  142.3637  157.3264 N.ar    1  UNL1       -0.1986
     16 C         137.6906  141.0735  157.9107 C.ar    1  UNL1        0.2236
     17 N         136.4834  140.3999  157.3284 N.ar    1  UNL1       -0.1809
     18 C         133.3985  141.1644  155.1113 C.3     1  UNL1        0.1108
     19 N         134.5630  140.3429  155.5795 N.pl3   1  UNL1       -0.3012
     20 H         134.5350  139.3617  155.5047 H       1  UNL1        0.1497
     21 C         141.6613  138.8414  164.9108 C.3     1  UNL1        0.1193
     22 C         141.4665  139.3997  166.2893 C.ar    1  UNL1        0.0317
     23 C         142.6565  139.7797  167.1196 C.ar    1  UNL1        0.0009
     24 C         142.4618  140.3380  168.4981 C.ar    1  UNL1        0.0066
     25 C         141.0769  140.5163  169.0464 C.ar    1  UNL1        0.0376
     26 BR        140.8822  141.0746  170.4249 Br      1  UNL1       -0.0489
     27 C         139.8869  140.1362  168.2161 C.ar    1  UNL1        0.0436
     28 C         140.0817  139.5779  166.8375 C.ar    1  UNL1        0.1449
     29 O         138.8917  139.1978  166.0072 O.3     1  UNL1       -0.4047
     30 C         138.1259  137.9470  166.3224 C.3     1  UNL1        0.5753
     31 F         137.3601  136.6964  166.6376 F       1  UNL1       -0.1328
     32 F         137.2395  138.7237  167.2503 F       1  UNL1       -0.1328
     33 F         139.0124  137.1704  165.3945 F       1  UNL1       -0.1328
@<TRIPOS>BOND
     1    18    19    1
     2    19    11    1
     3    11    12   ar
     4    12    13   ar
     5    13    14    1
     6    13    15   ar
     7    15    16   ar
     8    16     5    1
     9     5     6    1
    10     6     7    1
    11     7     8    1
    12     8     1    1
    13     1     2    2
    14     1     3   am
    15     3    21    1
    16    21    22    1
    17    22    23   ar
    18    23    24   ar
    19    24    25   ar
    20    25    26    1
    21    25    27   ar
    22    27    28   ar
    23    28    29    1
    24    29    30    1
    25    30    31    1
    26    30    32    1
    27    30    33    1
    28     8     9    1
    29     9    10    1
    30    16    17   ar
    31    17    11   ar
    32    10     5    1
    33    28    22   ar
    34    19    20    1
    35     3     4    1
@<TRIPOS>MOLECULE
*****
 33 35 0 0 0
SMALL
GASTEIGER

@<TRIPOS>ATOM
      1 C         140.2661  138.4231  163.6147 C.2     1  UNL1        0.2223
      2 O         140.6577  137.4732  164.7076 O.2     1  UNL1       -0.2751
      3 N         139.2175  139.4656  163.8671 N.am    1  UNL1       -0.3004
      4 H         138.9605  140.0890  163.1497 H       1  UNL1        0.1497
      5 N         142.2368  138.1451  159.5788 N.pl3   1  UNL1       -0.2781
      6 C         143.0061  137.7859  160.8154 C.3     1  UNL1        0.0941
      7 C         142.3492  137.8785  162.1607 C.3     1  UNL1        0.0306
      8 C         140.9230  138.3304  162.2694 C.3     1  UNL1        0.0799
      9 C         140.1537  138.6896  161.0328 C.3     1  UNL1        0.0306
     10 C         140.8107  138.5970  159.6875 C.3     1  UNL1        0.0941
     11 C         144.1755  139.1770  156.2732 C.ar    1  UNL1        0.2204
     12 N         144.2076  137.8672  155.5428 N.ar    1  UNL1       -0.1988
     13 C         143.5828  136.6501  156.1578 C.ar    1  UNL1        0.1453
     14 C         143.6149  135.3402  155.4274 C.3     1  UNL1        0.0739
     15 N         142.9259  136.7427  157.5031 N.ar    1  UNL1       -0.1986
     16 C         142.8938  138.0524  158.2334 C.ar    1  UNL1        0.2236
     17 N         143.5186  139.2696  157.6185 N.ar    1  UNL1       -0.1809
     18 C         145.6167  141.3263  156.5034 C.3     1  UNL1        0.1108
     19 N         144.8002  140.3941  155.6582 N.pl3   1  UNL1       -0.3012
     20 H         144.6744  140.5812  154.6999 H       1  UNL1        0.1497
     21 C         138.5605  139.5583  165.2124 C.3     1  UNL1        0.1193
     22 C         139.2079  140.3491  166.3103 C.ar    1  UNL1        0.0317
     23 C         139.4097  139.7303  167.6618 C.ar    1  UNL1        0.0009
     24 C         140.0571  140.5211  168.7597 C.ar    1  UNL1        0.0066
     25 C         140.5028  141.9307  168.5062 C.ar    1  UNL1        0.0376
     26 BR        141.1502  142.7215  169.6041 Br      1  UNL1       -0.0489
     27 C         140.3011  142.5496  167.1547 C.ar    1  UNL1        0.0436
     28 C         139.6536  141.7587  166.0568 C.ar    1  UNL1        0.1449
     29 O         139.4519  142.3775  164.7054 O.3     1  UNL1       -0.4047
     30 C         138.4341  143.4641  164.5224 C.3     1  UNL1        0.5753
     31 F         137.4163  144.5506  164.3394 F       1  UNL1       -0.1328
     32 F         137.3622  142.4301  164.3445 F       1  UNL1       -0.1328
     33 F         139.5060  144.4982  164.7002 F       1  UNL1       -0.1328
@<TRIPOS>BOND
     1    18    19    1
     2    19    11    1
     3    11    12   ar
     4    12    13   ar
     5    13    14    1
     6    13    15   ar
     7    15    16   ar
     8    16     5    1
     9     5     6    1
    10     6     7    1
    11     7     8    1
    12     8     1    1
    13     1     2    2
    14     1     3   am
    15     3    21    1
    16    21    22    1
    17    22    23   ar
    18    23    24   ar
    19    24    25   ar
    20    25    26    1
    21    25    27   ar
    22    27    28   ar
    23    28    29    1
    24    29    30    1
    25    30    31    1
    26    30    32    1
    27    30    33    1
    28     8     9    1
    29     9    10    1
    30    16    17   ar
    31    17    11   ar
    32    10     5    1
    33    28    22   ar
    34    19    20    1
    35     3     4    1
@<TRIPOS>MOLECULE
*****
 33 35 0 0 0
SMALL
GASTEIGER

@<TRIPOS>ATOM
      1 C         138.8356  138.6745  164.5857 C.2     1  UNL1        0.2223
      2 O         138.8340  137.2646  165.0976 O.2     1  UNL1       -0.2751
      3 N         138.9477  139.8211  165.5463 N.am    1  UNL1       -0.3004
      4 H         138.9488  140.7464  165.2103 H       1  UNL1        0.1497
      5 N         138.5038  139.4648  160.1681 N.pl3   1  UNL1       -0.2781
      6 C         139.3363  138.3202  160.6647 C.3     1  UNL1        0.0941
      7 C         139.4469  138.0567  162.1373 C.3     1  UNL1        0.0306
      8 C         138.7250  138.9379  163.1132 C.3     1  UNL1        0.0799
      9 C         137.8925  140.0826  162.6165 C.3     1  UNL1        0.0306
     10 C         137.7819  140.3460  161.1439 C.3     1  UNL1        0.0941
     11 C         137.3051  141.0097  156.7146 C.ar    1  UNL1        0.2204
     12 N         138.1718  140.2552  155.7505 N.ar    1  UNL1       -0.1988
     13 C         139.1492  139.2372  156.2589 C.ar    1  UNL1        0.1453
     14 C         140.0160  138.4827  155.2948 C.3     1  UNL1        0.0739
     15 N         139.2599  138.9738  157.7314 N.ar    1  UNL1       -0.1986
     16 C         138.3931  139.7282  158.6955 C.ar    1  UNL1        0.2236
     17 N         137.4158  140.7462  158.1871 N.ar    1  UNL1       -0.1809
     18 C         136.8167  143.3602  155.7213 C.3     1  UNL1        0.1108
     19 N         136.3277  142.0276  156.2062 N.pl3   1  UNL1       -0.3012
     20 H         135.3652  141.8211  156.1907 H       1  UNL1        0.1497
     21 C         139.0583  139.5577  167.0189 C.3     1  UNL1        0.1193
     22 C         139.9696  140.3970  167.8646 C.ar    1  UNL1        0.0317
     23 C         139.5664  140.7683  169.2608 C.ar    1  UNL1        0.0009
     24 C         140.4776  141.6077  170.1065 C.ar    1  UNL1        0.0066
     25 C         141.7921  142.0757  169.5559 C.ar    1  UNL1        0.0376
     26 BR        142.7033  142.9151  170.4015 Br      1  UNL1       -0.0489
     27 C         142.1953  141.7044  168.1596 C.ar    1  UNL1        0.0436
     28 C         141.2840  140.8650  167.3139 C.ar    1  UNL1        0.1449
     29 O         141.6872  140.4937  165.9177 O.3     1  UNL1       -0.4047
     30 C         142.8679  139.5966  165.6915 C.3     1  UNL1        0.5753
     31 F         144.0486  138.6996  165.4653 F       1  UNL1       -0.1328
     32 F         143.7167  140.7929  165.3778 F       1  UNL1       -0.1328
     33 F         142.0191  138.4003  166.0052 F       1  UNL1       -0.1328
@<TRIPOS>BOND
     1    18    19    1
     2    19    11    1
     3    11    12   ar
     4    12    13   ar
     5    13    14    1
     6    13    15   ar
     7    15    16   ar
     8    16     5    1
     9     5     6    1
    10     6     7    1
    11     7     8    1
    12     8     1    1
    13     1     2    2
    14     1     3   am
    15     3    21    1
    16    21    22    1
    17    22    23   ar
    18    23    24   ar
    19    24    25   ar
    20    25    26    1
    21    25    27   ar
    22    27    28   ar
    23    28    29    1
    24    29    30    1
    25    30    31    1
    26    30    32    1
    27    30    33    1
    28     8     9    1
    29     9    10    1
    30    16    17   ar
    31    17    11   ar
    32    10     5    1
    33    28    22   ar
    34    19    20    1
    35     3     4    1
@<TRIPOS>MOLECULE
*****
 33 35 0 0 0
SMALL
GASTEIGER

@<TRIPOS>ATOM
      1 C         138.4806  141.1561  162.6029 C.2     1  UNL1        0.2223
      2 O         137.0573  141.5501  162.8654 O.2     1  UNL1       -0.2751
      3 N         139.5509  141.5071  163.5934 N.am    1  UNL1       -0.3004
      4 H         140.4851  141.2485  163.4210 H       1  UNL1        0.1497
      5 N         139.5396  138.9206  158.8437 N.pl3   1  UNL1       -0.2781
      6 C         138.4225  139.9216  158.8316 C.3     1  UNL1        0.0941
      7 C         138.0695  140.6668  160.0846 C.3     1  UNL1        0.0306
      8 C         138.8336  140.4109  161.3498 C.3     1  UNL1        0.0799
      9 C         139.9507  139.4099  161.3619 C.3     1  UNL1        0.0306
     10 C         140.3037  138.6648  160.1089 C.3     1  UNL1        0.0941
     11 C         141.5637  136.7219  156.2324 C.ar    1  UNL1        0.2204
     12 N         140.5987  136.6851  155.0847 N.ar    1  UNL1       -0.1988
     13 C         139.2807  137.3934  155.1899 C.ar    1  UNL1        0.1453
     14 C         138.3157  137.3566  154.0420 C.3     1  UNL1        0.0739
     15 N         138.9277  138.1386  156.4429 N.ar    1  UNL1       -0.1986
     16 C         139.8926  138.1754  157.5906 C.ar    1  UNL1        0.2236
     17 N         141.2107  137.4671  157.4854 N.ar    1  UNL1       -0.1809
     18 C         143.1994  134.8786  157.0549 C.3     1  UNL1        0.1108
     19 N         142.8817  136.0136  156.1272 N.pl3   1  UNL1       -0.3012
     20 H         143.5383  136.2937  155.4492 H       1  UNL1        0.1497
     21 C         139.1980  142.2523  164.8465 C.3     1  UNL1        0.1193
     22 C         139.6731  141.7492  166.1773 C.ar    1  UNL1        0.0317
     23 C         140.4739  142.6448  167.0754 C.ar    1  UNL1        0.0009
     24 C         140.9490  142.1417  168.4062 C.ar    1  UNL1        0.0066
     25 C         140.6233  140.7428  168.8389 C.ar    1  UNL1        0.0376
     26 BR        141.0984  140.2396  170.1697 Br      1  UNL1       -0.0489
     27 C         139.8226  139.8471  167.9408 C.ar    1  UNL1        0.0436
     28 C         139.3475  140.3504  166.6100 C.ar    1  UNL1        0.1449
     29 O         138.5467  139.4547  165.7118 O.3     1  UNL1       -0.4047
     30 C         138.1393  138.0902  166.1832 C.3     1  UNL1        0.5753
     31 F         137.7320  136.7257  166.6546 F       1  UNL1       -0.1328
     32 F         139.1616  137.4717  165.2764 F       1  UNL1       -0.1328
     33 F         137.1171  138.7086  167.0901 F       1  UNL1       -0.1328
@<TRIPOS>BOND
     1    18    19    1
     2    19    11    1
     3    11    12   ar
     4    12    13   ar
     5    13    14    1
     6    13    15   ar
     7    15    16   ar
     8    16     5    1
     9     5     6    1
    10     6     7    1
    11     7     8    1
    12     8     1    1
    13     1     2    2
    14     1     3   am
    15     3    21    1
    16    21    22    1
    17    22    23   ar
    18    23    24   ar
    19    24    25   ar
    20    25    26    1
    21    25    27   ar
    22    27    28   ar
    23    28    29    1
    24    29    30    1
    25    30    31    1
    26    30    32    1
    27    30    33    1
    28     8     9    1
    29     9    10    1
    30    16    17   ar
    31    17    11   ar
    32    10     5    1
    33    28    22   ar
    34    19    20    1
    35     3     4    1
@<TRIPOS>MOLECULE
*****
 33 35 0 0 0
SMALL
GASTEIGER

@<TRIPOS>ATOM
      1 C         140.5398  138.5242  162.6343 C.2     1  UNL1        0.2223
      2 O         140.7915  137.0463  162.6826 O.2     1  UNL1       -0.2751
      3 N         140.9620  139.3948  163.7804 N.am    1  UNL1       -0.3004
      4 H         140.7968  140.3648  163.7487 H       1  UNL1        0.1497
      5 N         138.5176  140.3463  159.0509 N.pl3   1  UNL1       -0.2781
      6 C         139.8242  139.6275  158.8898 C.3     1  UNL1        0.0941
      7 C         140.4983  139.0201  160.0843 C.3     1  UNL1        0.0306
      8 C         139.8657  139.1316  161.4398 C.3     1  UNL1        0.0799
      9 C         138.5591  139.8505  161.6008 C.3     1  UNL1        0.0306
     10 C         137.8850  140.4578  160.4064 C.3     1  UNL1        0.0941
     11 C         137.8099  142.7119  155.9439 C.ar    1  UNL1        0.2204
     12 N         136.4954  142.1685  155.4675 N.ar    1  UNL1       -0.1988
     13 C         135.8550  141.0177  156.1856 C.ar    1  UNL1        0.1453
     14 C         134.5405  140.4744  155.7092 C.3     1  UNL1        0.0739
     15 N         136.5291  140.4104  157.3800 N.ar    1  UNL1       -0.1986
     16 C         137.8435  140.9537  157.8564 C.ar    1  UNL1        0.2236
     17 N         138.4839  142.1045  157.1383 N.ar    1  UNL1       -0.1809
     18 C         137.6988  145.1489  155.0503 C.3     1  UNL1        0.1108
     19 N         138.4503  143.8627  155.2258 N.pl3   1  UNL1       -0.3012
     20 H         139.3638  143.7737  154.8697 H       1  UNL1        0.1497
     21 C         141.6361  138.7875  164.9750 C.3     1  UNL1        0.1193
     22 C         141.4375  139.3889  166.3347 C.ar    1  UNL1        0.0317
     23 C         142.6251  139.7981  167.1545 C.ar    1  UNL1        0.0009
     24 C         142.4265  140.3996  168.5142 C.ar    1  UNL1        0.0066
     25 C         141.0402  140.5919  169.0541 C.ar    1  UNL1        0.0376
     26 BR        140.8416  141.1933  170.4138 Br      1  UNL1       -0.0489
     27 C         139.8526  140.1827  168.2342 C.ar    1  UNL1        0.0436
     28 C         140.0513  139.5812  166.8744 C.ar    1  UNL1        0.1449
     29 O         138.8637  139.1720  166.0546 O.3     1  UNL1       -0.4047
     30 C         138.1210  137.9118  166.3871 C.3     1  UNL1        0.5753
     31 F         137.3784  136.6518  166.7196 F       1  UNL1       -0.1328
     32 F         137.2775  138.6683  167.3700 F       1  UNL1       -0.1328
     33 F         138.9645  137.1553  165.4042 F       1  UNL1       -0.1328
@<TRIPOS>BOND
     1    18    19    1
     2    19    11    1
     3    11    12   ar
     4    12    13   ar
     5    13    14    1
     6    13    15   ar
     7    15    16   ar
     8    16     5    1
     9     5     6    1
    10     6     7    1
    11     7     8    1
    12     8     1    1
    13     1     2    2
    14     1     3   am
    15     3    21    1
    16    21    22    1
    17    22    23   ar
    18    23    24   ar
    19    24    25   ar
    20    25    26    1
    21    25    27   ar
    22    27    28   ar
    23    28    29    1
    24    29    30    1
    25    30    31    1
    26    30    32    1
    27    30    33    1
    28     8     9    1
    29     9    10    1
    30    16    17   ar
    31    17    11   ar
    32    10     5    1
    33    28    22   ar
    34    19    20    1
    35     3     4    1
@<TRIPOS>MOLECULE
*****
 33 35 0 0 0
SMALL
GASTEIGER

@<TRIPOS>ATOM
      1 C         143.8837  141.4136  162.6574 C.2     1  UNL1        0.2223
      2 O         145.3121  141.8523  162.7884 O.2     1  UNL1       -0.2751
      3 N         142.8738  141.8303  163.6852 N.am    1  UNL1       -0.3004
      4 H         141.9363  141.5424  163.5992 H       1  UNL1        0.1497
      5 N         142.6279  138.8475  159.1806 N.pl3   1  UNL1       -0.2781
      6 C         143.4191  138.2503  160.3064 C.3     1  UNL1        0.0941
      7 C         143.8377  139.1057  161.4654 C.3     1  UNL1        0.0306
      8 C         143.4651  140.5583  161.4985 C.3     1  UNL1        0.0799
      9 C         142.6739  141.1555  160.3727 C.3     1  UNL1        0.0306
     10 C         142.2553  140.3001  159.2138 C.3     1  UNL1        0.0941
     11 C         140.3446  137.0592  156.4716 C.ar    1  UNL1        0.2204
     12 N         141.3720  136.2814  155.7039 N.ar    1  UNL1       -0.1988
     13 C         142.8180  136.3590  156.0950 C.ar    1  UNL1        0.1453
     14 C         143.8455  135.5812  155.3271 C.3     1  UNL1        0.0739
     15 N         143.2367  137.2144  157.2539 N.ar    1  UNL1       -0.1986
     16 C         142.2093  137.9921  158.0217 C.ar    1  UNL1        0.2236
     17 N         140.7633  137.9145  157.6305 N.ar    1  UNL1       -0.1809
     18 C         138.4743  137.3710  154.6955 C.3     1  UNL1        0.1108
     19 N         138.8986  136.9816  156.0805 N.pl3   1  UNL1       -0.3012
     20 H         138.2280  136.6751  156.7329 H       1  UNL1        0.1497
     21 C         143.2924  142.6858  164.8442 C.3     1  UNL1        0.1193
     22 C         142.5227  142.6346  166.1307 C.ar    1  UNL1        0.0317
     23 C         143.2260  142.2995  167.4125 C.ar    1  UNL1        0.0009
     24 C         142.4563  142.2483  168.6990 C.ar    1  UNL1        0.0066
     25 C         140.9834  142.5322  168.7036 C.ar    1  UNL1        0.0376
     26 BR        140.2138  142.4809  169.9901 Br      1  UNL1       -0.0489
     27 C         140.2802  142.8673  167.4218 C.ar    1  UNL1        0.0436
     28 C         141.0499  142.9185  166.1352 C.ar    1  UNL1        0.1449
     29 O         140.3467  143.2536  164.8534 O.3     1  UNL1       -0.4047
     30 C         138.9088  143.6805  164.8762 C.3     1  UNL1        0.5753
     31 F         137.4711  144.1075  164.8989 F       1  UNL1       -0.1328
     32 F         139.3355  145.1079  165.0506 F       1  UNL1       -0.1328
     33 F         138.4822  142.2531  164.7017 F       1  UNL1       -0.1328
@<TRIPOS>BOND
     1    18    19    1
     2    19    11    1
     3    11    12   ar
     4    12    13   ar
     5    13    14    1
     6    13    15   ar
     7    15    16   ar
     8    16     5    1
     9     5     6    1
    10     6     7    1
    11     7     8    1
    12     8     1    1
    13     1     2    2
    14     1     3   am
    15     3    21    1
    16    21    22    1
    17    22    23   ar
    18    23    24   ar
    19    24    25   ar
    20    25    26    1
    21    25    27   ar
    22    27    28   ar
    23    28    29    1
    24    29    30    1
    25    30    31    1
    26    30    32    1
    27    30    33    1
    28     8     9    1
    29     9    10    1
    30    16    17   ar
    31    17    11   ar
    32    10     5    1
    33    28    22   ar
    34    19    20    1
    35     3     4    1
@<TRIPOS>MOLECULE
*****
 33 35 0 0 0
SMALL
GASTEIGER

@<TRIPOS>ATOM
      1 C         143.4284  141.0181  162.8466 C.2     1  UNL1        0.2223
      2 O         144.4604  140.6501  163.8711 O.2     1  UNL1       -0.2751
      3 N         142.6521  142.2937  162.9887 N.am    1  UNL1       -0.3004
      4 H         141.9749  142.5352  162.3162 H       1  UNL1        0.1497
      5 N         142.6615  138.2956  159.3467 N.pl3   1  UNL1       -0.2781
      6 C         143.3112  137.7577  160.5870 C.3     1  UNL1        0.0941
      7 C         143.5669  138.6652  161.7537 C.3     1  UNL1        0.0306
      8 C         143.1728  140.1106  161.6800 C.3     1  UNL1        0.0799
      9 C         142.5230  140.6485  160.4396 C.3     1  UNL1        0.0306
     10 C         142.2674  139.7410  159.2730 C.3     1  UNL1        0.0941
     11 C         143.0744  135.3310  156.7407 C.ar    1  UNL1        0.2204
     12 N         141.8945  135.5730  155.8468 N.ar    1  UNL1       -0.1988
     13 C         140.9702  136.7225  156.1194 C.ar    1  UNL1        0.1453
     14 C         139.7903  136.9645  155.2254 C.3     1  UNL1        0.0739
     15 N         141.2259  137.6300  157.2860 N.ar    1  UNL1       -0.1986
     16 C         142.4058  137.3880  158.1800 C.ar    1  UNL1        0.2236
     17 N         143.3301  136.2385  157.9073 N.ar    1  UNL1       -0.1809
     18 C         144.3674  133.2371  157.5735 C.3     1  UNL1        0.1108
     19 N         143.9987  134.1815  156.4680 N.pl3   1  UNL1       -0.3012
     20 H         144.3633  134.0469  155.5635 H       1  UNL1        0.1497
     21 C         142.9078  143.2013  164.1553 C.3     1  UNL1        0.1193
     22 C         142.3731  142.8481  165.5115 C.ar    1  UNL1        0.0317
     23 C         143.3194  142.5604  166.6392 C.ar    1  UNL1        0.0009
     24 C         142.7848  142.2073  167.9954 C.ar    1  UNL1        0.0066
     25 C         141.3037  142.1418  168.2240 C.ar    1  UNL1        0.0376
     26 BR        140.7690  141.7887  169.5802 Br      1  UNL1       -0.0489
     27 C         140.3573  142.4295  167.0963 C.ar    1  UNL1        0.0436
     28 C         140.8921  142.7827  165.7401 C.ar    1  UNL1        0.1449
     29 O         139.9458  143.0704  164.6124 O.3     1  UNL1       -0.4047
     30 C         138.6551  143.7864  164.8805 C.3     1  UNL1        0.5753
     31 F         137.3646  144.5023  165.1486 F       1  UNL1       -0.1328
     32 F         139.4071  145.0700  165.0720 F       1  UNL1       -0.1328
     33 F         137.9032  142.5027  164.6890 F       1  UNL1       -0.1328
@<TRIPOS>BOND
     1    18    19    1
     2    19    11    1
     3    11    12   ar
     4    12    13   ar
     5    13    14    1
     6    13    15   ar
     7    15    16   ar
     8    16     5    1
     9     5     6    1
    10     6     7    1
    11     7     8    1
    12     8     1    1
    13     1     2    2
    14     1     3   am
    15     3    21    1
    16    21    22    1
    17    22    23   ar
    18    23    24   ar
    19    24    25   ar
    20    25    26    1
    21    25    27   ar
    22    27    28   ar
    23    28    29    1
    24    29    30    1
    25    30    31    1
    26    30    32    1
    27    30    33    1
    28     8     9    1
    29     9    10    1
    30    16    17   ar
    31    17    11   ar
    32    10     5    1
    33    28    22   ar
    34    19    20    1
    35     3     4    1
@<TRIPOS>MOLECULE
*****
 33 35 0 0 0
SMALL
GASTEIGER

@<TRIPOS>ATOM
      1 C         143.8341  142.1851  161.3765 C.2     1  UNL1        0.2223
      2 O         145.3174  142.3079  161.5631 O.2     1  UNL1       -0.2751
      3 N         143.0387  141.2775  162.2673 N.am    1  UNL1       -0.3004
      4 H         142.0652  141.1969  162.1448 H       1  UNL1        0.1497
      5 N         141.7705  144.5393  158.1439 N.pl3   1  UNL1       -0.2781
      6 C         141.4061  144.7609  159.5820 C.3     1  UNL1        0.0941
      7 C         142.0940  143.9761  160.6596 C.3     1  UNL1        0.0306
      8 C         143.1462  142.9698  160.2990 C.3     1  UNL1        0.0799
      9 C         143.5106  142.7482  158.8608 C.3     1  UNL1        0.0306
     10 C         142.8228  143.5329  157.7834 C.3     1  UNL1        0.0941
     11 C         139.4745  147.2358  156.3532 C.ar    1  UNL1        0.2204
     12 N         139.7069  146.8935  154.9114 N.ar    1  UNL1       -0.1988
     13 C         140.6272  145.7664  154.5471 C.ar    1  UNL1        0.1453
     14 C         140.8597  145.4241  153.1053 C.3     1  UNL1        0.0739
     15 N         141.3151  144.9817  155.6246 N.ar    1  UNL1       -0.1986
     16 C         141.0826  145.3240  157.0664 C.ar    1  UNL1        0.2236
     17 N         140.1623  146.4511  157.4306 N.ar    1  UNL1       -0.1809
     18 C         138.5631  149.6286  155.9125 C.3     1  UNL1        0.1108
     19 N         138.5542  148.3629  156.7175 N.pl3   1  UNL1       -0.3012
     20 H         137.9442  148.2720  157.4849 H       1  UNL1        0.1497
     21 C         143.7265  140.4927  163.3448 C.3     1  UNL1        0.1193
     22 C         143.3925  140.7443  164.7853 C.ar    1  UNL1        0.0317
     23 C         142.9982  139.6023  165.6743 C.ar    1  UNL1        0.0009
     24 C         142.6642  139.8539  167.1148 C.ar    1  UNL1        0.0066
     25 C         142.7245  141.2475  167.6664 C.ar    1  UNL1        0.0376
     26 BR        142.3905  141.4991  169.1069 Br      1  UNL1       -0.0489
     27 C         143.1188  142.3895  166.7774 C.ar    1  UNL1        0.0436
     28 C         143.4529  142.1379  165.3369 C.ar    1  UNL1        0.1449
     29 O         143.8472  143.2799  164.4479 O.3     1  UNL1       -0.4047
     30 C         142.9288  144.4546  164.2840 C.3     1  UNL1        0.5753
     31 F         142.0105  145.6292  164.1202 F       1  UNL1       -0.1328
     32 F         144.0798  145.3872  164.5192 F       1  UNL1       -0.1328
     33 F         141.7778  143.5219  164.0489 F       1  UNL1       -0.1328
@<TRIPOS>BOND
     1    18    19    1
     2    19    11    1
     3    11    12   ar
     4    12    13   ar
     5    13    14    1
     6    13    15   ar
     7    15    16   ar
     8    16     5    1
     9     5     6    1
    10     6     7    1
    11     7     8    1
    12     8     1    1
    13     1     2    2
    14     1     3   am
    15     3    21    1
    16    21    22    1
    17    22    23   ar
    18    23    24   ar
    19    24    25   ar
    20    25    26    1
    21    25    27   ar
    22    27    28   ar
    23    28    29    1
    24    29    30    1
    25    30    31    1
    26    30    32    1
    27    30    33    1
    28     8     9    1
    29     9    10    1
    30    16    17   ar
    31    17    11   ar
    32    10     5    1
    33    28    22   ar
    34    19    20    1
    35     3     4    1
