@<TRIPOS>MOLECULE
*****
 35 39 0 0 0
SMALL
GASTEIGER

@<TRIPOS>ATOM
      1 N         143.4797  141.5670  162.2471 N.3     1  UNL1       -0.2750
      2 C         142.0835  141.9905  162.5952 C.3     1  UNL1        0.0737
      3 C         141.4634  141.5421  163.8853 C.3     1  UNL1        0.0374
      4 C         142.2395  140.6701  164.8273 C.3     1  UNL1        0.0800
      5 C         143.6356  140.2466  164.4792 C.3     1  UNL1        0.0374
      6 C         144.2558  140.6949  163.1892 C.3     1  UNL1        0.0737
      7 C         144.7554  140.5475  156.7540 C.2     1  UNL1        0.2664
      8 O         144.2546  139.1938  156.3457 O.2     1  UNL1       -0.2683
      9 N         144.5369  141.0368  158.1550 N.am    1  UNL1       -0.2748
     10 C         143.8176  140.1724  159.1477 C.3     1  UNL1        0.0951
     11 C         143.5991  140.6617  160.5487 C.3     1  UNL1        0.0362
     12 C         144.0999  142.0154  160.9571 C.3     1  UNL1        0.0487
     13 C         144.3852  143.2133  161.8134 C.3     1  UNL1        0.0161
     14 C         144.8191  142.8798  159.9644 C.3     1  UNL1        0.0362
     15 C         145.0377  142.3905  158.5633 C.3     1  UNL1        0.0951
     16 C         143.2075  142.4323  155.0070 C.3     1  UNL1        0.0328
     17 C         144.7008  142.3543  154.8878 C.ar    1  UNL1        0.0003
     18 C         145.4201  143.2187  153.8951 C.ar    1  UNL1       -0.0010
     19 C         146.9133  143.1407  153.7759 C.ar    1  UNL1        0.0204
     20 C         147.6872  142.1983  154.6494 C.ar    1  UNL1        0.0990
     21 N         146.9679  141.3340  155.6420 N.ar    1  UNL1       -0.2396
     22 C         145.4747  141.4120  155.7613 C.ar    1  UNL1        0.1307
     23 N         141.6193  140.2217  166.1174 N.pl3   1  UNL1       -0.2872
     24 C         140.3798  139.3772  166.1001 C.ar    1  UNL1        0.0516
     25 C         140.2669  138.2306  165.1395 C.ar    1  UNL1        0.0148
     26 C         139.0274  137.3860  165.1222 C.ar    1  UNL1        0.0013
     27 C         137.9009  137.6879  166.0655 C.ar    1  UNL1        0.0001
     28 C         138.0138  138.8344  167.0261 C.ar    1  UNL1        0.0013
     29 C         139.2533  139.6790  167.0434 C.ar    1  UNL1        0.0148
     30 C         142.2387  140.6180  167.4249 C.ar    1  UNL1        0.0710
     31 C         142.5827  142.0542  167.6871 C.ar    1  UNL1        0.0180
     32 C         143.2020  142.4505  168.9946 C.ar    1  UNL1        0.0220
     33 C         143.4774  141.4104  170.0397 C.ar    1  UNL1        0.0990
     34 N         143.1334  139.9742  169.7775 N.ar    1  UNL1       -0.2410
     35 C         142.5141  139.5779  168.4701 C.ar    1  UNL1        0.1136
@<TRIPOS>BOND
     1    16    17    1
     2    17    18   ar
     3    18    19   ar
     4    19    20   ar
     5    20    21   ar
     6    21    22   ar
     7    22     7    1
     8     7     8    2
     9     7     9   am
    10     9    10    1
    11    10    11    1
    12    11    12    1
    13    12    13    1
    14    12     1    1
    15     1     2    1
    16     2     3    1
    17     3     4    1
    18     4    23    1
    19    23    24    1
    20    24    25   ar
    21    25    26   ar
    22    26    27   ar
    23    27    28   ar
    24    28    29   ar
    25    23    30    1
    26    30    31   ar
    27    31    32   ar
    28    32    33   ar
    29    33    34   ar
    30    34    35   ar
    31     4     5    1
    32     5     6    1
    33    12    14    1
    34    14    15    1
    35    22    17   ar
    36    15     9    1
    37     6     1    1
    38    29    24   ar
    39    35    30   ar
@<TRIPOS>MOLECULE
*****
 35 39 0 0 0
SMALL
GASTEIGER

@<TRIPOS>ATOM
      1 N         140.3671  143.5614  162.6174 N.3     1  UNL1       -0.2750
      2 C         141.5578  142.7613  163.0555 C.3     1  UNL1        0.0737
      3 C         141.5024  141.9698  164.3285 C.3     1  UNL1        0.0374
      4 C         140.2563  141.9785  165.1634 C.3     1  UNL1        0.0800
      5 C         139.0656  142.7787  164.7254 C.3     1  UNL1        0.0374
      6 C         139.1209  143.5701  163.4524 C.3     1  UNL1        0.0737
      7 C         139.4084  143.9370  156.9800 C.2     1  UNL1        0.2664
      8 O         138.8159  142.6583  156.4662 O.2     1  UNL1       -0.2683
      9 N         139.7464  144.0756  158.4348 N.am    1  UNL1       -0.2748
     10 C         139.4920  142.9355  159.3758 C.3     1  UNL1        0.0951
     11 C         139.8300  143.0742  160.8306 C.3     1  UNL1        0.0362
     12 C         140.4224  144.3529  161.3444 C.3     1  UNL1        0.0487
     13 C         140.9956  145.3567  162.3003 C.3     1  UNL1        0.0161
     14 C         140.6768  145.4929  160.4034 C.3     1  UNL1        0.0362
     15 C         140.3388  145.3543  158.9486 C.3     1  UNL1        0.0951
     16 C         141.9345  144.0126  155.3635 C.3     1  UNL1        0.0328
     17 C         140.9258  145.1149  155.2307 C.ar    1  UNL1        0.0003
     18 C         141.1802  146.2549  154.2897 C.ar    1  UNL1       -0.0010
     19 C         140.1715  147.3571  154.1568 C.ar    1  UNL1        0.0204
     20 C         138.9084  147.3193  154.9650 C.ar    1  UNL1        0.0990
     21 N         138.6541  146.1793  155.9061 N.ar    1  UNL1       -0.2396
     22 C         139.6628  145.0771  156.0389 C.ar    1  UNL1        0.1307
     23 N         140.2009  141.1871  166.4364 N.pl3   1  UNL1       -0.2872
     24 C         140.9735  141.6443  167.6381 C.ar    1  UNL1        0.0516
     25 C         142.2418  140.9433  168.0256 C.ar    1  UNL1        0.0148
     26 C         143.0143  141.4005  169.2273 C.ar    1  UNL1        0.0013
     27 C         142.5187  142.5587  170.0415 C.ar    1  UNL1        0.0001
     28 C         141.2504  143.2596  169.6540 C.ar    1  UNL1        0.0013
     29 C         140.4778  142.8025  168.4524 C.ar    1  UNL1        0.0148
     30 C         139.3730  139.9383  166.5077 C.ar    1  UNL1        0.0710
     31 C         139.4156  138.9450  165.3845 C.ar    1  UNL1        0.0180
     32 C         138.5877  137.6962  165.4558 C.ar    1  UNL1        0.0220
     33 C         137.7172  137.4407  166.6503 C.ar    1  UNL1        0.0990
     34 N         137.6746  138.4339  167.7735 N.ar    1  UNL1       -0.2410
     35 C         138.5025  139.6827  167.7022 C.ar    1  UNL1        0.1136
@<TRIPOS>BOND
     1    16    17    1
     2    17    18   ar
     3    18    19   ar
     4    19    20   ar
     5    20    21   ar
     6    21    22   ar
     7    22     7    1
     8     7     8    2
     9     7     9   am
    10     9    10    1
    11    10    11    1
    12    11    12    1
    13    12    13    1
    14    12     1    1
    15     1     2    1
    16     2     3    1
    17     3     4    1
    18     4    23    1
    19    23    24    1
    20    24    25   ar
    21    25    26   ar
    22    26    27   ar
    23    27    28   ar
    24    28    29   ar
    25    23    30    1
    26    30    31   ar
    27    31    32   ar
    28    32    33   ar
    29    33    34   ar
    30    34    35   ar
    31     4     5    1
    32     5     6    1
    33    12    14    1
    34    14    15    1
    35    22    17   ar
    36    15     9    1
    37     6     1    1
    38    29    24   ar
    39    35    30   ar
@<TRIPOS>MOLECULE
*****
 35 39 0 0 0
SMALL
GASTEIGER

@<TRIPOS>ATOM
      1 N         140.2922  143.4588  162.6022 N.3     1  UNL1       -0.2750
      2 C         141.5472  143.0510  163.3154 C.3     1  UNL1        0.0737
      3 C         141.4648  142.2324  164.5697 C.3     1  UNL1        0.0374
      4 C         140.1273  141.8217  165.1106 C.3     1  UNL1        0.0800
      5 C         138.8724  142.2294  164.3974 C.3     1  UNL1        0.0374
      6 C         138.9548  143.0480  163.1431 C.3     1  UNL1        0.0737
      7 C         139.3832  143.9833  156.9684 C.2     1  UNL1        0.2664
      8 O         138.7659  142.7304  156.4216 O.2     1  UNL1       -0.2683
      9 N         139.7137  144.0814  158.4282 N.am    1  UNL1       -0.2748
     10 C         139.4268  142.9264  159.3413 C.3     1  UNL1        0.0951
     11 C         139.7573  143.0244  160.8012 C.3     1  UNL1        0.0362
     12 C         140.3746  144.2774  161.3479 C.3     1  UNL1        0.0487
     13 C         140.9633  145.2460  162.3302 C.3     1  UNL1        0.0161
     14 C         140.6615  145.4323  160.4348 C.3     1  UNL1        0.0362
     15 C         140.3310  145.3343  158.9749 C.3     1  UNL1        0.0951
     16 C         141.8603  143.9784  155.2761 C.3     1  UNL1        0.0328
     17 C         140.9086  145.1358  155.2091 C.ar    1  UNL1        0.0003
     18 C         141.1954  146.2908  154.2960 C.ar    1  UNL1       -0.0010
     19 C         140.2436  147.4483  154.2290 C.ar    1  UNL1        0.0204
     20 C         139.0051  147.4507  155.0751 C.ar    1  UNL1        0.0990
     21 N         138.7183  146.2958  155.9882 N.ar    1  UNL1       -0.2396
     22 C         139.6701  145.1383  156.0552 C.ar    1  UNL1        0.1307
     23 N         140.0449  141.0031  166.3649 N.pl3   1  UNL1       -0.2872
     24 C         139.2898  139.7070  166.3665 C.ar    1  UNL1        0.0516
     25 C         138.1956  139.4778  167.3665 C.ar    1  UNL1        0.0148
     26 C         137.4404  138.1818  167.3682 C.ar    1  UNL1        0.0013
     27 C         137.7795  137.1149  166.3698 C.ar    1  UNL1        0.0001
     28 C         138.8738  137.3441  165.3697 C.ar    1  UNL1        0.0013
     29 C         139.6289  138.6401  165.3681 C.ar    1  UNL1        0.0148
     30 C         140.7177  141.4806  167.6177 C.ar    1  UNL1        0.0710
     31 C         140.3669  142.8206  168.1932 C.ar    1  UNL1        0.0180
     32 C         141.0397  143.2982  169.4460 C.ar    1  UNL1        0.0220
     33 C         142.0631  142.4357  170.1232 C.ar    1  UNL1        0.0990
     34 N         142.4139  141.0957  169.5476 N.ar    1  UNL1       -0.2410
     35 C         141.7412  140.6181  168.2948 C.ar    1  UNL1        0.1136
@<TRIPOS>BOND
     1    16    17    1
     2    17    18   ar
     3    18    19   ar
     4    19    20   ar
     5    20    21   ar
     6    21    22   ar
     7    22     7    1
     8     7     8    2
     9     7     9   am
    10     9    10    1
    11    10    11    1
    12    11    12    1
    13    12    13    1
    14    12     1    1
    15     1     2    1
    16     2     3    1
    17     3     4    1
    18     4    23    1
    19    23    24    1
    20    24    25   ar
    21    25    26   ar
    22    26    27   ar
    23    27    28   ar
    24    28    29   ar
    25    23    30    1
    26    30    31   ar
    27    31    32   ar
    28    32    33   ar
    29    33    34   ar
    30    34    35   ar
    31     4     5    1
    32     5     6    1
    33    12    14    1
    34    14    15    1
    35    22    17   ar
    36    15     9    1
    37     6     1    1
    38    29    24   ar
    39    35    30   ar
@<TRIPOS>MOLECULE
*****
 35 39 0 0 0
SMALL
GASTEIGER

@<TRIPOS>ATOM
      1 N         143.1769  141.8185  162.6417 N.3     1  UNL1       -0.2750
      2 C         141.7970  142.3309  162.9303 C.3     1  UNL1        0.0737
      3 C         141.1319  142.0014  164.2337 C.3     1  UNL1        0.0374
      4 C         141.8468  141.1594  165.2487 C.3     1  UNL1        0.0800
      5 C         143.2266  140.6470  164.9601 C.3     1  UNL1        0.0374
      6 C         143.8917  140.9765  163.6567 C.3     1  UNL1        0.0737
      7 C         143.9704  140.7145  157.0746 C.2     1  UNL1        0.2664
      8 O         143.1399  139.5386  156.6534 O.2     1  UNL1       -0.2683
      9 N         143.9276  141.1923  158.4958 N.am    1  UNL1       -0.2748
     10 C         143.0543  140.4942  159.4958 C.3     1  UNL1        0.0951
     11 C         143.0115  140.9720  160.9170 C.3     1  UNL1        0.0362
     12 C         143.8420  142.1480  161.3382 C.3     1  UNL1        0.0487
     13 C         144.4414  143.2095  162.2121 C.3     1  UNL1        0.0161
     14 C         144.7152  142.8461  160.3383 C.3     1  UNL1        0.0362
     15 C         144.7581  142.3683  158.9170 C.3     1  UNL1        0.0951
     16 C         142.9061  143.0554  155.5293 C.3     1  UNL1        0.0328
     17 C         144.3116  142.5831  155.3019 C.ar    1  UNL1        0.0003
     18 C         145.1848  143.2812  154.3020 C.ar    1  UNL1       -0.0010
     19 C         146.5903  142.8088  154.0746 C.ar    1  UNL1        0.0204
     20 C         147.1224  141.6385  154.8472 C.ar    1  UNL1        0.0990
     21 N         146.2491  140.9404  155.8472 N.ar    1  UNL1       -0.2396
     22 C         144.8437  141.4127  156.0745 C.ar    1  UNL1        0.1307
     23 N         141.1817  140.8299  166.5522 N.pl3   1  UNL1       -0.2872
     24 C         141.6486  141.4837  167.8189 C.ar    1  UNL1        0.0516
     25 C         142.8654  140.9649  168.5262 C.ar    1  UNL1        0.0148
     26 C         143.3324  141.6186  169.7929 C.ar    1  UNL1        0.0013
     27 C         142.5827  142.7912  170.3523 C.ar    1  UNL1        0.0001
     28 C         141.3659  143.3100  169.6449 C.ar    1  UNL1        0.0013
     29 C         140.8989  142.6563  168.3783 C.ar    1  UNL1        0.0148
     30 C         140.0496  139.8465  166.5890 C.ar    1  UNL1        0.0710
     31 C         139.8524  138.8870  165.4530 C.ar    1  UNL1        0.0180
     32 C         138.7203  137.9036  165.4898 C.ar    1  UNL1        0.0220
     33 C         137.7854  137.8798  166.6625 C.ar    1  UNL1        0.0990
     34 N         137.9826  138.8393  167.7985 N.ar    1  UNL1       -0.2410
     35 C         139.1147  139.8227  167.7617 C.ar    1  UNL1        0.1136
@<TRIPOS>BOND
     1    16    17    1
     2    17    18   ar
     3    18    19   ar
     4    19    20   ar
     5    20    21   ar
     6    21    22   ar
     7    22     7    1
     8     7     8    2
     9     7     9   am
    10     9    10    1
    11    10    11    1
    12    11    12    1
    13    12    13    1
    14    12     1    1
    15     1     2    1
    16     2     3    1
    17     3     4    1
    18     4    23    1
    19    23    24    1
    20    24    25   ar
    21    25    26   ar
    22    26    27   ar
    23    27    28   ar
    24    28    29   ar
    25    23    30    1
    26    30    31   ar
    27    31    32   ar
    28    32    33   ar
    29    33    34   ar
    30    34    35   ar
    31     4     5    1
    32     5     6    1
    33    12    14    1
    34    14    15    1
    35    22    17   ar
    36    15     9    1
    37     6     1    1
    38    29    24   ar
    39    35    30   ar
@<TRIPOS>MOLECULE
*****
 35 39 0 0 0
SMALL
GASTEIGER

@<TRIPOS>ATOM
      1 N         140.7816  139.1612  159.9830 N.3     1  UNL1       -0.2750
      2 C         141.5750  138.5651  161.1078 C.3     1  UNL1        0.0737
      3 C         141.7128  139.3072  162.4040 C.3     1  UNL1        0.0374
      4 C         141.0573  140.6455  162.5754 C.3     1  UNL1        0.0800
      5 C         140.2640  141.2416  161.4506 C.3     1  UNL1        0.0374
      6 C         140.1261  140.4994  160.1543 C.3     1  UNL1        0.0737
      7 C         143.2051  136.4810  155.5349 C.2     1  UNL1        0.2664
      8 O         144.6988  136.4912  155.6717 O.2     1  UNL1       -0.2683
      9 N         142.3513  137.1270  156.5855 N.am    1  UNL1       -0.2748
     10 C         142.9913  137.7832  157.7729 C.3     1  UNL1        0.0951
     11 C         142.1375  138.4292  158.8235 C.3     1  UNL1        0.0362
     12 C         140.6438  138.4190  158.6867 C.3     1  UNL1        0.0487
     13 C         139.1980  138.6666  159.0001 C.3     1  UNL1        0.0161
     14 C         140.0038  137.7629  157.4994 C.3     1  UNL1        0.0362
     15 C         140.8576  137.1168  156.4487 C.3     1  UNL1        0.0951
     16 C         142.7093  133.5223  155.5422 C.3     1  UNL1        0.0328
     17 C         142.3172  134.3455  154.3511 C.ar    1  UNL1        0.0003
     18 C         141.6773  133.6894  153.1637 C.ar    1  UNL1       -0.0010
     19 C         141.2853  134.5126  151.9727 C.ar    1  UNL1        0.0204
     20 C         141.5331  135.9919  151.9690 C.ar    1  UNL1        0.0990
     21 N         142.1730  136.6480  153.1564 N.ar    1  UNL1       -0.2396
     22 C         142.5651  135.8248  154.3475 C.ar    1  UNL1        0.1307
     23 N         141.1951  141.3877  163.8716 N.pl3   1  UNL1       -0.2872
     24 C         141.9941  142.6559  163.9285 C.ar    1  UNL1        0.0516
     25 C         141.2952  143.9832  163.9292 C.ar    1  UNL1        0.0148
     26 C         142.0941  145.2514  163.9861 C.ar    1  UNL1        0.0013
     27 C         143.5919  145.1924  164.0424 C.ar    1  UNL1        0.0001
     28 C         144.2908  143.8651  164.0417 C.ar    1  UNL1        0.0013
     29 C         143.4919  142.5969  163.9847 C.ar    1  UNL1        0.0148
     30 C         140.5340  140.8616  165.1110 C.ar    1  UNL1        0.0710
     31 C         141.2257  140.9776  166.4369 C.ar    1  UNL1        0.0180
     32 C         140.5645  140.4515  167.6763 C.ar    1  UNL1        0.0220
     33 C         139.2117  139.8094  167.5898 C.ar    1  UNL1        0.0990
     34 N         138.5200  139.6934  166.2639 N.ar    1  UNL1       -0.2410
     35 C         139.1811  140.2195  165.0245 C.ar    1  UNL1        0.1136
@<TRIPOS>BOND
     1    16    17    1
     2    17    18   ar
     3    18    19   ar
     4    19    20   ar
     5    20    21   ar
     6    21    22   ar
     7    22     7    1
     8     7     8    2
     9     7     9   am
    10     9    10    1
    11    10    11    1
    12    11    12    1
    13    12    13    1
    14    12     1    1
    15     1     2    1
    16     2     3    1
    17     3     4    1
    18     4    23    1
    19    23    24    1
    20    24    25   ar
    21    25    26   ar
    22    26    27   ar
    23    27    28   ar
    24    28    29   ar
    25    23    30    1
    26    30    31   ar
    27    31    32   ar
    28    32    33   ar
    29    33    34   ar
    30    34    35   ar
    31     4     5    1
    32     5     6    1
    33    12    14    1
    34    14    15    1
    35    22    17   ar
    36    15     9    1
    37     6     1    1
    38    29    24   ar
    39    35    30   ar
@<TRIPOS>MOLECULE
*****
 35 39 0 0 0
SMALL
GASTEIGER

@<TRIPOS>ATOM
      1 N         141.8477  138.4592  161.8936 N.3     1  UNL1       -0.2750
      2 C         143.2225  138.1477  161.3808 C.3     1  UNL1        0.0737
      3 C         143.4529  137.9769  159.9085 C.3     1  UNL1        0.0374
      4 C         142.3085  138.1176  158.9490 C.3     1  UNL1        0.0800
      5 C         140.9338  138.4291  159.4617 C.3     1  UNL1        0.0374
      6 C         140.7034  138.5999  160.9340 C.3     1  UNL1        0.0737
      7 C         142.7590  141.3834  166.7371 C.2     1  UNL1        0.2664
      8 O         143.6526  142.5594  166.4751 O.2     1  UNL1       -0.2683
      9 N         142.3784  140.4656  165.6134 N.am    1  UNL1       -0.2748
     10 C         142.8914  140.7238  164.2276 C.3     1  UNL1        0.0951
     11 C         142.5108  139.8060  163.1039 C.3     1  UNL1        0.0362
     12 C         141.6173  138.6300  163.3659 C.3     1  UNL1        0.0487
     13 C         140.8038  137.3947  163.1165 C.3     1  UNL1        0.0161
     14 C         141.1043  138.3718  164.7516 C.3     1  UNL1        0.0362
     15 C         141.4849  139.2896  165.8754 C.3     1  UNL1        0.0951
     16 C         140.3194  142.8223  167.7258 C.3     1  UNL1        0.0328
     17 C         141.0263  141.8447  168.6172 C.ar    1  UNL1        0.0003
     18 C         140.5133  141.5865  170.0029 C.ar    1  UNL1       -0.0010
     19 C         141.2202  140.6089  170.8943 C.ar    1  UNL1        0.0204
     20 C         142.4400  139.8894  170.3999 C.ar    1  UNL1        0.0990
     21 N         142.9530  140.1476  169.0142 N.ar    1  UNL1       -0.2396
     22 C         142.2461  141.1252  168.1229 C.ar    1  UNL1        0.1307
     23 N         142.5390  137.9468  157.4766 N.pl3   1  UNL1       -0.2872
     24 C         142.2927  136.6168  156.8282 C.ar    1  UNL1        0.0516
     25 C         143.1135  135.4256  157.2250 C.ar    1  UNL1        0.0148
     26 C         142.8673  134.0956  156.5767 C.ar    1  UNL1        0.0013
     27 C         141.8004  133.9567  155.5315 C.ar    1  UNL1        0.0001
     28 C         140.9797  135.1480  155.1346 C.ar    1  UNL1        0.0013
     29 C         141.2258  136.4779  155.7830 C.ar    1  UNL1        0.0148
     30 C         143.0157  139.1060  156.6527 C.ar    1  UNL1        0.0710
     31 C         144.1888  138.9402  155.7327 C.ar    1  UNL1        0.0180
     32 C         144.6656  140.0994  154.9088 C.ar    1  UNL1        0.0220
     33 C         143.9693  141.4245  155.0048 C.ar    1  UNL1        0.0990
     34 N         142.7962  141.5904  155.9247 N.ar    1  UNL1       -0.2410
     35 C         142.3194  140.4311  156.7487 C.ar    1  UNL1        0.1136
@<TRIPOS>BOND
     1    16    17    1
     2    17    18   ar
     3    18    19   ar
     4    19    20   ar
     5    20    21   ar
     6    21    22   ar
     7    22     7    1
     8     7     8    2
     9     7     9   am
    10     9    10    1
    11    10    11    1
    12    11    12    1
    13    12    13    1
    14    12     1    1
    15     1     2    1
    16     2     3    1
    17     3     4    1
    18     4    23    1
    19    23    24    1
    20    24    25   ar
    21    25    26   ar
    22    26    27   ar
    23    27    28   ar
    24    28    29   ar
    25    23    30    1
    26    30    31   ar
    27    31    32   ar
    28    32    33   ar
    29    33    34   ar
    30    34    35   ar
    31     4     5    1
    32     5     6    1
    33    12    14    1
    34    14    15    1
    35    22    17   ar
    36    15     9    1
    37     6     1    1
    38    29    24   ar
    39    35    30   ar
@<TRIPOS>MOLECULE
*****
 35 39 0 0 0
SMALL
GASTEIGER

@<TRIPOS>ATOM
      1 N         142.2114  142.1407  161.9095 N.3     1  UNL1       -0.2750
      2 C         143.1981  142.0024  163.0307 C.3     1  UNL1        0.0737
      3 C         142.7440  141.5101  164.3729 C.3     1  UNL1        0.0374
      4 C         141.3032  141.1562  164.5938 C.3     1  UNL1        0.0800
      5 C         140.3165  141.2945  163.4726 C.3     1  UNL1        0.0374
      6 C         140.7705  141.7868  162.1304 C.3     1  UNL1        0.0737
      7 C         144.6522  141.1093  156.8281 C.2     1  UNL1        0.2664
      8 O         145.0551  139.6680  156.7269 O.2     1  UNL1       -0.2683
      9 N         143.9899  141.6172  158.0745 N.am    1  UNL1       -0.2748
     10 C         143.7305  140.6838  159.2197 C.3     1  UNL1        0.0951
     11 C         143.0683  141.1917  160.4660 C.3     1  UNL1        0.0362
     12 C         142.6654  142.6330  160.5673 C.3     1  UNL1        0.0487
     13 C         142.1048  143.9033  161.1346 C.3     1  UNL1        0.0161
     14 C         142.9247  143.5664  159.4221 C.3     1  UNL1        0.0362
     15 C         143.5870  143.0586  158.1757 C.3     1  UNL1        0.0951
     16 C         147.3833  142.2899  156.4441 C.3     1  UNL1        0.0328
     17 C         146.2771  142.6331  155.4909 C.ar    1  UNL1        0.0003
     18 C         146.5364  143.5665  154.3457 C.ar    1  UNL1       -0.0010
     19 C         145.4302  143.9096  153.3925 C.ar    1  UNL1        0.0204
     20 C         144.0647  143.3193  153.5845 C.ar    1  UNL1        0.0990
     21 N         143.8053  142.3859  154.7297 N.ar    1  UNL1       -0.2396
     22 C         144.9115  142.0428  155.6829 C.ar    1  UNL1        0.1307
     23 N         140.8492  140.6639  165.9360 N.pl3   1  UNL1       -0.2872
     24 C         139.8613  139.5389  166.0275 C.ar    1  UNL1        0.0516
     25 C         138.7096  139.6280  166.9844 C.ar    1  UNL1        0.0148
     26 C         137.7217  138.5030  167.0760 C.ar    1  UNL1        0.0013
     27 C         137.8855  137.2888  166.2106 C.ar    1  UNL1        0.0001
     28 C         139.0372  137.1997  165.2536 C.ar    1  UNL1        0.0013
     29 C         140.0250  138.3247  165.1621 C.ar    1  UNL1        0.0148
     30 C         141.3830  141.2967  167.1869 C.ar    1  UNL1        0.0710
     31 C         142.5383  140.6704  167.9100 C.ar    1  UNL1        0.0180
     32 C         143.0722  141.3032  169.1609 C.ar    1  UNL1        0.0220
     33 C         142.4508  142.5623  169.6885 C.ar    1  UNL1        0.0990
     34 N         141.2955  143.1887  168.9653 N.ar    1  UNL1       -0.2410
     35 C         140.7616  142.5558  167.7145 C.ar    1  UNL1        0.1136
@<TRIPOS>BOND
     1    16    17    1
     2    17    18   ar
     3    18    19   ar
     4    19    20   ar
     5    20    21   ar
     6    21    22   ar
     7    22     7    1
     8     7     8    2
     9     7     9   am
    10     9    10    1
    11    10    11    1
    12    11    12    1
    13    12    13    1
    14    12     1    1
    15     1     2    1
    16     2     3    1
    17     3     4    1
    18     4    23    1
    19    23    24    1
    20    24    25   ar
    21    25    26   ar
    22    26    27   ar
    23    27    28   ar
    24    28    29   ar
    25    23    30    1
    26    30    31   ar
    27    31    32   ar
    28    32    33   ar
    29    33    34   ar
    30    34    35   ar
    31     4     5    1
    32     5     6    1
    33    12    14    1
    34    14    15    1
    35    22    17   ar
    36    15     9    1
    37     6     1    1
    38    29    24   ar
    39    35    30   ar
@<TRIPOS>MOLECULE
*****
 35 39 0 0 0
SMALL
GASTEIGER

@<TRIPOS>ATOM
      1 N         141.9109  138.6032  161.9927 N.3     1  UNL1       -0.2750
      2 C         143.3134  138.4984  161.4713 C.3     1  UNL1        0.0737
      3 C         143.5567  138.3426  159.9994 C.3     1  UNL1        0.0374
      4 C         142.3974  138.2917  159.0489 C.3     1  UNL1        0.0800
      5 C         140.9949  138.3965  159.5702 C.3     1  UNL1        0.0374
      6 C         140.7516  138.5523  161.0422 C.3     1  UNL1        0.0737
      7 C         142.8077  141.4574  166.8805 C.2     1  UNL1        0.2664
      8 O         143.7178  142.6256  166.6419 O.2     1  UNL1       -0.2683
      9 N         142.4277  140.5579  165.7419 N.am    1  UNL1       -0.2748
     10 C         142.9577  140.8266  164.3646 C.3     1  UNL1        0.0951
     11 C         142.5776  139.9272  163.2260 C.3     1  UNL1        0.0362
     12 C         141.6676  138.7589  163.4646 C.3     1  UNL1        0.0487
     13 C         140.8420  137.5366  163.1921 C.3     1  UNL1        0.0161
     14 C         141.1375  138.4901  164.8418 C.3     1  UNL1        0.0362
     15 C         141.5176  139.3896  165.9805 C.3     1  UNL1        0.0951
     16 C         140.3482  142.8788  167.8451 C.3     1  UNL1        0.0328
     17 C         141.0480  141.8993  168.7401 C.ar    1  UNL1        0.0003
     18 C         140.5180  141.6306  170.1173 C.ar    1  UNL1       -0.0010
     19 C         141.2178  140.6511  171.0123 C.ar    1  UNL1        0.0204
     20 C         142.4475  139.9404  170.5300 C.ar    1  UNL1        0.0990
     21 N         142.9774  140.2091  169.1528 N.ar    1  UNL1       -0.2396
     22 C         142.2777  141.1886  168.2578 C.ar    1  UNL1        0.1307
     23 N         142.6407  138.1360  157.5770 N.pl3   1  UNL1       -0.2872
     24 C         143.2482  139.2619  156.7939 C.ar    1  UNL1        0.0516
     25 C         144.2475  138.9706  155.7137 C.ar    1  UNL1        0.0148
     26 C         144.8550  140.0964  154.9306 C.ar    1  UNL1        0.0013
     27 C         144.4634  141.5136  155.2276 C.ar    1  UNL1        0.0001
     28 C         143.4642  141.8049  156.3077 C.ar    1  UNL1        0.0013
     29 C         142.8566  140.6791  157.0909 C.ar    1  UNL1        0.0148
     30 C         142.2765  136.8543  156.8881 C.ar    1  UNL1        0.0710
     31 C         143.1133  135.6269  157.0962 C.ar    1  UNL1        0.0180
     32 C         142.7491  134.3452  156.4073 C.ar    1  UNL1        0.0220
     33 C         141.5481  134.2908  155.5103 C.ar    1  UNL1        0.0990
     34 N         140.7113  135.5182  155.3022 N.ar    1  UNL1       -0.2410
     35 C         141.0755  136.7999  155.9911 C.ar    1  UNL1        0.1136
@<TRIPOS>BOND
     1    16    17    1
     2    17    18   ar
     3    18    19   ar
     4    19    20   ar
     5    20    21   ar
     6    21    22   ar
     7    22     7    1
     8     7     8    2
     9     7     9   am
    10     9    10    1
    11    10    11    1
    12    11    12    1
    13    12    13    1
    14    12     1    1
    15     1     2    1
    16     2     3    1
    17     3     4    1
    18     4    23    1
    19    23    24    1
    20    24    25   ar
    21    25    26   ar
    22    26    27   ar
    23    27    28   ar
    24    28    29   ar
    25    23    30    1
    26    30    31   ar
    27    31    32   ar
    28    32    33   ar
    29    33    34   ar
    30    34    35   ar
    31     4     5    1
    32     5     6    1
    33    12    14    1
    34    14    15    1
    35    22    17   ar
    36    15     9    1
    37     6     1    1
    38    29    24   ar
    39    35    30   ar
@<TRIPOS>MOLECULE
*****
 35 39 0 0 0
SMALL
GASTEIGER

@<TRIPOS>ATOM
      1 N         142.7957  139.4604  160.8755 N.3     1  UNL1       -0.2750
      2 C         142.3920  138.1595  160.2475 C.3     1  UNL1        0.0737
      3 C         142.5974  137.9405  158.7779 C.3     1  UNL1        0.0374
      4 C         143.2065  139.0225  157.9363 C.3     1  UNL1        0.0800
      5 C         143.6102  140.3234  158.5643 C.3     1  UNL1        0.0374
      6 C         143.4048  140.5425  160.0339 C.3     1  UNL1        0.0737
      7 C         139.4833  141.2529  165.1948 C.2     1  UNL1        0.2664
      8 O         138.1733  141.7613  164.6701 O.2     1  UNL1       -0.2683
      9 N         140.5190  140.7284  164.2450 N.am    1  UNL1       -0.2748
     10 C         140.2447  140.7124  162.7703 C.3     1  UNL1        0.0951
     11 C         141.2803  140.1879  161.8204 C.3     1  UNL1        0.0362
     12 C         142.5904  139.6795  162.3452 C.3     1  UNL1        0.0487
     13 C         143.9717  139.0950  162.3595 C.3     1  UNL1        0.0161
     14 C         142.8647  139.6955  163.8197 C.3     1  UNL1        0.0362
     15 C         141.8290  140.2200  164.7697 C.3     1  UNL1        0.0951
     16 C         138.4830  139.0203  166.9311 C.3     1  UNL1        0.0328
     17 C         139.2575  140.1526  167.5376 C.ar    1  UNL1        0.0003
     18 C         139.5318  140.1687  169.0122 C.ar    1  UNL1       -0.0010
     19 C         140.3063  141.3011  169.6186 C.ar    1  UNL1        0.0204
     20 C         140.8065  142.4174  168.7505 C.ar    1  UNL1        0.0990
     21 N         140.5322  142.4013  167.2760 N.ar    1  UNL1       -0.2396
     22 C         139.7576  141.2689  166.6695 C.ar    1  UNL1        0.1307
     23 N         143.4119  138.8035  156.4666 N.pl3   1  UNL1       -0.2872
     24 C         144.0458  139.8750  155.6299 C.ar    1  UNL1        0.0516
     25 C         145.5378  139.9291  155.4852 C.ar    1  UNL1        0.0148
     26 C         146.1718  141.0005  154.6485 C.ar    1  UNL1        0.0013
     27 C         145.3138  142.0179  153.9566 C.ar    1  UNL1        0.0001
     28 C         143.8217  141.9638  154.1014 C.ar    1  UNL1        0.0013
     29 C         143.1878  140.8923  154.9380 C.ar    1  UNL1        0.0148
     30 C         142.9833  137.5128  155.8336 C.ar    1  UNL1        0.0710
     31 C         143.9594  136.3815  155.7022 C.ar    1  UNL1        0.0180
     32 C         143.5308  135.0909  155.0692 C.ar    1  UNL1        0.0220
     33 C         142.1262  134.9316  154.5676 C.ar    1  UNL1        0.0990
     34 N         141.1501  136.0630  154.6990 N.ar    1  UNL1       -0.2410
     35 C         141.5787  137.3536  155.3320 C.ar    1  UNL1        0.1136
@<TRIPOS>BOND
     1    16    17    1
     2    17    18   ar
     3    18    19   ar
     4    19    20   ar
     5    20    21   ar
     6    21    22   ar
     7    22     7    1
     8     7     8    2
     9     7     9   am
    10     9    10    1
    11    10    11    1
    12    11    12    1
    13    12    13    1
    14    12     1    1
    15     1     2    1
    16     2     3    1
    17     3     4    1
    18     4    23    1
    19    23    24    1
    20    24    25   ar
    21    25    26   ar
    22    26    27   ar
    23    27    28   ar
    24    28    29   ar
    25    23    30    1
    26    30    31   ar
    27    31    32   ar
    28    32    33   ar
    29    33    34   ar
    30    34    35   ar
    31     4     5    1
    32     5     6    1
    33    12    14    1
    34    14    15    1
    35    22    17   ar
    36    15     9    1
    37     6     1    1
    38    29    24   ar
    39    35    30   ar
