@<TRIPOS>MOLECULE
*****
 35 38 0 0 0
SMALL
GASTEIGER

@<TRIPOS>ATOM
      1 C         138.9486  142.4997  160.6922 C.ar    1  UNL1        0.2204
      2 N         137.7824  142.8557  161.5658 N.ar    1  UNL1       -0.2089
      3 C         137.4700  142.0251  162.7752 C.ar    1  UNL1        0.1402
      4 C         138.3240  140.8385  163.1110 C.ar    1  UNL1        0.1773
      5 C         139.4902  140.4825  162.2373 C.ar    1  UNL1        0.1402
      6 N         139.8025  141.3131  161.0280 N.ar    1  UNL1       -0.2089
      7 N         139.8855  144.9914  157.0640 N.pl3   1  UNL1       -0.2586
      8 C         139.1039  143.7194  156.9188 C.3     1  UNL1        0.1167
      9 C         138.7916  142.8889  158.1282 C.3     1  UNL1        0.1151
     10 N         139.2609  143.3303  159.4828 N.pl3   1  UNL1       -0.2764
     11 C         140.0425  144.6023  159.6280 C.3     1  UNL1        0.0955
     12 C         140.5118  145.0437  160.9825 C.3     1  UNL1        0.0233
     13 C         140.3548  145.4328  158.4186 C.3     1  UNL1        0.1149
     14 C         140.2486  147.6529  154.2622 C.ar    1  UNL1        0.1817
     15 N         141.1083  146.5472  153.7249 N.ar    1  UNL1       -0.0586
     16 O         141.0768  145.4157  154.7091 O.2     1  UNL1       -0.3167
     17 C         140.1978  145.8220  155.8546 C.ar    1  UNL1        0.3183
     18 N         139.6859  147.2046  155.5784 N.ar    1  UNL1       -0.1779
     19 C         139.5108  150.1396  154.4105 C.3     1  UNL1        0.0081
     20 C         139.9960  148.9747  153.5996 C.3     1  UNL1        0.0621
     21 C         140.2286  149.1316  152.1261 C.3     1  UNL1        0.0081
     22 O         138.0117  140.0079  164.3203 O.3     1  UNL1       -0.4674
     23 C         138.9953  138.9820  164.7998 C.3     1  UNL1        0.2344
     24 C         139.9289  139.3077  165.9278 C.ar    1  UNL1        0.0486
     25 C         139.3877  139.8551  167.2152 C.ar    1  UNL1        0.0013
     26 C         140.3213  140.1808  168.3430 C.ar    1  UNL1       -0.0026
     27 C         141.7963  139.9591  168.1835 C.ar    1  UNL1        0.0035
     28 C         142.3375  139.4117  166.8962 C.ar    1  UNL1        0.0269
     29 C         141.4039  139.0860  165.7683 C.ar    1  UNL1        0.1393
     30 F         141.9451  138.5386  164.4808 F       1  UNL1       -0.2044
     31 C         142.7299  140.2849  169.3115 C.3     1  UNL1        0.1773
     32 S         142.7456  141.6657  169.8972 S.O2    1  UNL1       -0.0040
     33 C         142.7613  143.0466  170.4828 C.3     1  UNL1        0.1764
     34 O         142.1431  141.1351  171.1642 O.2     1  UNL1       -0.1726
     35 O         143.3482  142.1962  168.6301 O.2     1  UNL1       -0.1726
@<TRIPOS>BOND
     1    19    20    1
     2    20    21    1
     3    20    14    1
     4    14    15   ar
     5    15    16   ar
     6    16    17   ar
     7    17     7    1
     8     7     8    1
     9     8     9    1
    10     9    10    1
    11    10     1    1
    12     1     2   ar
    13     2     3   ar
    14     3     4   ar
    15     4    22    1
    16    22    23    1
    17    23    24    1
    18    24    25   ar
    19    25    26   ar
    20    26    27   ar
    21    27    31    1
    22    31    32    1
    23    32    33    1
    24    32    34    2
    25    32    35    2
    26    27    28   ar
    27    28    29   ar
    28    29    30    1
    29     4     5   ar
    30     5     6   ar
    31    10    11    1
    32    11    12    1
    33    11    13    1
    34    17    18   ar
    35    18    14   ar
    36    13     7    1
    37     6     1   ar
    38    29    24   ar
@<TRIPOS>MOLECULE
*****
 35 38 0 0 0
SMALL
GASTEIGER

@<TRIPOS>ATOM
      1 C         139.0084  141.3438  160.0757 C.ar    1  UNL1        0.2204
      2 N         139.9254  140.1575  160.0346 N.ar    1  UNL1       -0.2089
      3 C         139.7469  139.0371  161.0160 C.ar    1  UNL1        0.1402
      4 C         138.6514  139.1032  162.0385 C.ar    1  UNL1        0.1773
      5 C         137.7343  140.2896  162.0795 C.ar    1  UNL1        0.1402
      6 N         137.9129  141.4098  161.0982 N.ar    1  UNL1       -0.2089
      7 N         139.5439  144.7047  157.1317 N.pl3   1  UNL1       -0.2586
      8 C         140.1879  144.7826  158.4841 C.3     1  UNL1        0.1167
      9 C         140.0094  143.6623  159.4654 C.3     1  UNL1        0.1151
     10 N         139.1869  142.4641  159.0943 N.pl3   1  UNL1       -0.2764
     11 C         138.5428  142.3862  157.7419 C.3     1  UNL1        0.0955
     12 C         137.7203  141.1880  157.3707 C.3     1  UNL1        0.0233
     13 C         138.7213  143.5065  156.7606 C.3     1  UNL1        0.1149
     14 C         139.5976  148.0021  155.0847 C.ar    1  UNL1        0.1817
     15 N         140.3965  147.0959  154.1955 N.ar    1  UNL1       -0.0586
     16 O         140.4736  145.7504  154.8541 O.2     1  UNL1       -0.3167
     17 C         139.7224  145.8250  156.1503 C.ar    1  UNL1        0.3183
     18 N         139.1810  147.2166  156.2928 N.ar    1  UNL1       -0.1779
     19 C         138.5091  150.2414  155.8266 C.3     1  UNL1        0.0081
     20 C         139.2724  149.4411  154.8134 C.3     1  UNL1        0.0621
     21 C         139.7106  150.0797  153.5288 C.3     1  UNL1        0.0081
     22 O         138.4729  137.9829  163.0198 O.3     1  UNL1       -0.4674
     23 C         139.5215  137.7232  164.0604 C.3     1  UNL1        0.2344
     24 C         139.4756  138.4534  165.3700 C.ar    1  UNL1        0.0486
     25 C         138.2297  138.4190  166.2046 C.ar    1  UNL1        0.0013
     26 C         138.1838  139.1491  167.5141 C.ar    1  UNL1       -0.0026
     27 C         139.3839  139.9135  167.9890 C.ar    1  UNL1        0.0035
     28 C         140.6298  139.9479  167.1544 C.ar    1  UNL1        0.0269
     29 C         140.6756  139.2178  165.8449 C.ar    1  UNL1        0.1393
     30 F         141.9215  139.2521  165.0103 F       1  UNL1       -0.2044
     31 C         139.3380  140.6436  169.2986 C.3     1  UNL1        0.1773
     32 S         140.5879  140.8036  170.1123 S.O2    1  UNL1       -0.0040
     33 C         141.8378  140.9636  170.9260 C.3     1  UNL1        0.1764
     34 O         140.6801  142.2395  169.6883 O.2     1  UNL1       -0.1726
     35 O         140.4957  139.3678  170.5362 O.2     1  UNL1       -0.1726
@<TRIPOS>BOND
     1    19    20    1
     2    20    21    1
     3    20    14    1
     4    14    15   ar
     5    15    16   ar
     6    16    17   ar
     7    17     7    1
     8     7     8    1
     9     8     9    1
    10     9    10    1
    11    10     1    1
    12     1     2   ar
    13     2     3   ar
    14     3     4   ar
    15     4    22    1
    16    22    23    1
    17    23    24    1
    18    24    25   ar
    19    25    26   ar
    20    26    27   ar
    21    27    31    1
    22    31    32    1
    23    32    33    1
    24    32    34    2
    25    32    35    2
    26    27    28   ar
    27    28    29   ar
    28    29    30    1
    29     4     5   ar
    30     5     6   ar
    31    10    11    1
    32    11    12    1
    33    11    13    1
    34    17    18   ar
    35    18    14   ar
    36    13     7    1
    37     6     1   ar
    38    29    24   ar
@<TRIPOS>MOLECULE
*****
 35 38 0 0 0
SMALL
GASTEIGER

@<TRIPOS>ATOM
      1 C         139.6831  140.4817  159.9584 C.ar    1  UNL1        0.2204
      2 N         138.8234  140.0992  161.1265 N.ar    1  UNL1       -0.2089
      3 C         138.0508  141.1514  161.8655 C.ar    1  UNL1        0.1402
      4 C         138.1378  142.5860  161.4363 C.ar    1  UNL1        0.1773
      5 C         138.9976  142.9685  160.2681 C.ar    1  UNL1        0.1402
      6 N         139.7702  141.9164  159.5291 N.ar    1  UNL1       -0.2089
      7 N         142.0010  137.3254  157.7414 N.pl3   1  UNL1       -0.2586
      8 C         140.6225  137.7023  157.2858 C.3     1  UNL1        0.1167
      9 C         139.8499  138.7544  158.0248 C.3     1  UNL1        0.1151
     10 N         140.4558  139.4296  159.2194 N.pl3   1  UNL1       -0.2764
     11 C         141.8343  139.0526  159.6750 C.3     1  UNL1        0.0955
     12 C         142.4402  139.7278  160.8696 C.3     1  UNL1        0.0233
     13 C         142.6069  138.0005  158.9360 C.3     1  UNL1        0.1149
     14 C         143.8481  134.1737  156.4297 C.ar    1  UNL1        0.1817
     15 N         144.0771  135.1347  155.3009 N.ar    1  UNL1       -0.0586
     16 O         143.4131  136.4322  155.6549 O.2     1  UNL1       -0.3167
     17 C         142.7736  136.2732  157.0025 C.ar    1  UNL1        0.3183
     18 N         143.0426  134.8774  157.4813 N.ar    1  UNL1       -0.1779
     19 C         145.1502  132.2988  157.6703 C.3     1  UNL1        0.0081
     20 C         144.3386  132.7577  156.4953 C.3     1  UNL1        0.0621
     21 C         144.0176  131.8005  155.3859 C.3     1  UNL1        0.0081
     22 O         137.3652  143.6382  162.1752 O.3     1  UNL1       -0.4674
     23 C         137.9542  144.2836  163.3944 C.3     1  UNL1        0.2344
     24 C         139.4339  144.2250  163.6333 C.ar    1  UNL1        0.0486
     25 C         140.0119  143.1435  164.4972 C.ar    1  UNL1        0.0013
     26 C         141.4916  143.0850  164.7361 C.ar    1  UNL1       -0.0026
     27 C         142.3933  144.1079  164.1111 C.ar    1  UNL1        0.0035
     28 C         141.8153  145.1893  163.2472 C.ar    1  UNL1        0.0269
     29 C         140.3356  145.2479  163.0083 C.ar    1  UNL1        0.1393
     30 F         139.7576  146.3294  162.1444 F       1  UNL1       -0.2044
     31 C         143.8730  144.0493  164.3501 C.3     1  UNL1        0.1773
     32 S         144.6900  142.9546  163.7304 S.O2    1  UNL1       -0.0040
     33 C         145.5071  141.8598  163.1106 C.3     1  UNL1        0.1764
     34 O         144.6777  142.2087  165.0317 O.2     1  UNL1       -0.1726
     35 O         144.7023  143.7004  162.4290 O.2     1  UNL1       -0.1726
@<TRIPOS>BOND
     1    19    20    1
     2    20    21    1
     3    20    14    1
     4    14    15   ar
     5    15    16   ar
     6    16    17   ar
     7    17     7    1
     8     7     8    1
     9     8     9    1
    10     9    10    1
    11    10     1    1
    12     1     2   ar
    13     2     3   ar
    14     3     4   ar
    15     4    22    1
    16    22    23    1
    17    23    24    1
    18    24    25   ar
    19    25    26   ar
    20    26    27   ar
    21    27    31    1
    22    31    32    1
    23    32    33    1
    24    32    34    2
    25    32    35    2
    26    27    28   ar
    27    28    29   ar
    28    29    30    1
    29     4     5   ar
    30     5     6   ar
    31    10    11    1
    32    11    12    1
    33    11    13    1
    34    17    18   ar
    35    18    14   ar
    36    13     7    1
    37     6     1   ar
    38    29    24   ar
@<TRIPOS>MOLECULE
*****
 35 38 0 0 0
SMALL
GASTEIGER

@<TRIPOS>ATOM
      1 C         143.3827  141.0790  160.1323 C.ar    1  UNL1        0.2204
      2 N         142.3487  142.1647  160.0857 N.ar    1  UNL1       -0.2089
      3 C         142.5354  143.4135  160.8955 C.ar    1  UNL1        0.1402
      4 C         143.7560  143.5766  161.7518 C.ar    1  UNL1        0.1773
      5 C         144.7901  142.4909  161.7984 C.ar    1  UNL1        0.1402
      6 N         144.6034  141.2421  160.9886 N.ar    1  UNL1       -0.2089
      7 N         142.8228  137.3327  157.7029 N.pl3   1  UNL1       -0.2586
      8 C         143.0996  138.6374  157.0165 C.3     1  UNL1        0.1167
      9 C         143.2862  139.8861  157.8262 C.3     1  UNL1        0.1151
     10 N         143.1960  139.8302  159.3225 N.pl3   1  UNL1       -0.2764
     11 C         142.9192  138.5256  160.0090 C.3     1  UNL1        0.0955
     12 C         142.8291  138.4697  161.5052 C.3     1  UNL1        0.0233
     13 C         142.7326  137.2768  159.1992 C.3     1  UNL1        0.1149
     14 C         143.0292  133.9254  155.8555 C.ar    1  UNL1        0.1817
     15 N         141.6684  134.3991  155.4386 N.ar    1  UNL1       -0.0586
     16 O         141.4255  135.7332  156.0799 O.2     1  UNL1       -0.3167
     17 C         142.6361  136.0839  156.8931 C.ar    1  UNL1        0.3183
     18 N         143.6273  134.9666  156.7545 N.ar    1  UNL1       -0.1779
     19 C         144.7755  132.0498  156.2828 C.3     1  UNL1        0.0081
     20 C         143.6781  132.6366  155.4455 C.3     1  UNL1        0.0621
     21 C         143.2294  131.9347  154.1981 C.3     1  UNL1        0.0081
     22 O         143.9427  144.8253  162.5616 O.3     1  UNL1       -0.4674
     23 C         143.1173  145.0507  163.7935 C.3     1  UNL1        0.2344
     24 C         142.7373  143.8899  164.6644 C.ar    1  UNL1        0.0486
     25 C         141.3035  143.4590  164.7563 C.ar    1  UNL1        0.0013
     26 C         140.9235  142.2984  165.6271 C.ar    1  UNL1       -0.0026
     27 C         141.9774  141.5686  166.4061 C.ar    1  UNL1        0.0035
     28 C         143.4112  141.9995  166.3143 C.ar    1  UNL1        0.0269
     29 C         143.7911  143.1602  165.4434 C.ar    1  UNL1        0.1393
     30 F         145.2250  143.5912  165.3515 F       1  UNL1       -0.2044
     31 C         141.5974  140.4079  167.2770 C.3     1  UNL1        0.1773
     32 S         142.1647  140.2910  168.6606 S.O2    1  UNL1       -0.0040
     33 C         142.7321  140.1741  170.0443 C.3     1  UNL1        0.1764
     34 O         142.9964  139.1227  168.2209 O.2     1  UNL1       -0.1726
     35 O         141.3331  141.4592  169.1004 O.2     1  UNL1       -0.1726
@<TRIPOS>BOND
     1    19    20    1
     2    20    21    1
     3    20    14    1
     4    14    15   ar
     5    15    16   ar
     6    16    17   ar
     7    17     7    1
     8     7     8    1
     9     8     9    1
    10     9    10    1
    11    10     1    1
    12     1     2   ar
    13     2     3   ar
    14     3     4   ar
    15     4    22    1
    16    22    23    1
    17    23    24    1
    18    24    25   ar
    19    25    26   ar
    20    26    27   ar
    21    27    31    1
    22    31    32    1
    23    32    33    1
    24    32    34    2
    25    32    35    2
    26    27    28   ar
    27    28    29   ar
    28    29    30    1
    29     4     5   ar
    30     5     6   ar
    31    10    11    1
    32    11    12    1
    33    11    13    1
    34    17    18   ar
    35    18    14   ar
    36    13     7    1
    37     6     1   ar
    38    29    24   ar
@<TRIPOS>MOLECULE
*****
 35 38 0 0 0
SMALL
GASTEIGER

@<TRIPOS>ATOM
      1 C         141.5886  143.7358  159.5910 C.ar    1  UNL1        0.2204
      2 N         140.4591  142.7902  159.8740 N.ar    1  UNL1       -0.2089
      3 C         139.4001  143.1632  160.8687 C.ar    1  UNL1        0.1402
      4 C         139.4706  144.4817  161.5804 C.ar    1  UNL1        0.1773
      5 C         140.6002  145.4273  161.2974 C.ar    1  UNL1        0.1402
      6 N         141.6592  145.0543  160.3027 N.ar    1  UNL1       -0.2089
      7 N         144.7656  142.6170  156.6068 N.pl3   1  UNL1       -0.2586
      8 C         143.4525  143.1664  156.1338 C.3     1  UNL1        0.1167
      9 C         142.3935  143.5394  157.1285 C.3     1  UNL1        0.1151
     10 N         142.6477  143.3628  158.5963 N.pl3   1  UNL1       -0.2764
     11 C         143.9608  142.8134  159.0693 C.3     1  UNL1        0.0955
     12 C         144.2149  142.6368  160.5370 C.3     1  UNL1        0.0233
     13 C         145.0197  142.4405  158.0746 C.3     1  UNL1        0.1149
     14 C         147.9516  142.0907  154.4533 C.ar    1  UNL1        0.1817
     15 N         146.9569  141.2496  153.7096 N.ar    1  UNL1       -0.0586
     16 O         145.6424  141.3444  154.4258 O.2     1  UNL1       -0.3167
     17 C         145.8247  142.2440  155.6121 C.ar    1  UNL1        0.3183
     18 N         147.2519  142.7053  155.6291 N.ar    1  UNL1       -0.1779
     19 C         150.4528  141.4506  154.7440 C.3     1  UNL1        0.0081
     20 C         149.3931  142.2834  154.0857 C.3     1  UNL1        0.0621
     21 C         149.7749  143.3088  153.0597 C.3     1  UNL1        0.0081
     22 O         138.4116  144.8546  162.5751 O.3     1  UNL1       -0.4674
     23 C         137.6372  143.7830  163.2833 C.3     1  UNL1        0.2344
     24 C         138.3260  142.8880  164.2707 C.ar    1  UNL1        0.0486
     25 C         139.2985  143.4660  165.2556 C.ar    1  UNL1        0.0013
     26 C         139.9872  142.5711  166.2429 C.ar    1  UNL1       -0.0026
     27 C         139.7034  141.0982  166.2453 C.ar    1  UNL1        0.0035
     28 C         138.7309  140.5202  165.2603 C.ar    1  UNL1        0.0269
     29 C         138.0422  141.4151  164.2731 C.ar    1  UNL1        0.1393
     30 F         137.0696  140.8372  163.2881 F       1  UNL1       -0.2044
     31 C         140.3921  140.2033  167.2326 C.3     1  UNL1        0.1773
     32 S         140.1003  140.3380  168.6978 S.O2    1  UNL1       -0.0040
     33 C         139.8086  140.4729  170.1630 C.3     1  UNL1        0.1764
     34 O         138.8219  139.5754  168.5133 O.2     1  UNL1       -0.1726
     35 O         141.3788  141.1007  168.8822 O.2     1  UNL1       -0.1726
@<TRIPOS>BOND
     1    19    20    1
     2    20    21    1
     3    20    14    1
     4    14    15   ar
     5    15    16   ar
     6    16    17   ar
     7    17     7    1
     8     7     8    1
     9     8     9    1
    10     9    10    1
    11    10     1    1
    12     1     2   ar
    13     2     3   ar
    14     3     4   ar
    15     4    22    1
    16    22    23    1
    17    23    24    1
    18    24    25   ar
    19    25    26   ar
    20    26    27   ar
    21    27    31    1
    22    31    32    1
    23    32    33    1
    24    32    34    2
    25    32    35    2
    26    27    28   ar
    27    28    29   ar
    28    29    30    1
    29     4     5   ar
    30     5     6   ar
    31    10    11    1
    32    11    12    1
    33    11    13    1
    34    17    18   ar
    35    18    14   ar
    36    13     7    1
    37     6     1   ar
    38    29    24   ar
@<TRIPOS>MOLECULE
*****
 35 38 0 0 0
SMALL
GASTEIGER

@<TRIPOS>ATOM
      1 C         140.4328  141.2807  160.0575 C.ar    1  UNL1        0.2204
      2 N         141.2883  142.2631  160.8011 N.ar    1  UNL1       -0.2089
      3 C         140.6501  143.3803  161.5722 C.ar    1  UNL1        0.1402
      4 C         139.1564  143.5151  161.5997 C.ar    1  UNL1        0.1773
      5 C         138.3009  142.5327  160.8561 C.ar    1  UNL1        0.1402
      6 N         138.9391  141.4155  160.0850 N.ar    1  UNL1       -0.2089
      7 N         142.3471  137.9292  157.7440 N.pl3   1  UNL1       -0.2586
      8 C         141.8508  139.1487  157.0254 C.3     1  UNL1        0.1167
      9 C         141.2127  140.2658  157.7965 C.3     1  UNL1        0.1151
     10 N         141.0709  140.1635  159.2863 N.pl3   1  UNL1       -0.2764
     11 C         141.5672  138.9440  160.0049 C.3     1  UNL1        0.0955
     12 C         141.4254  138.8416  161.4947 C.3     1  UNL1        0.0233
     13 C         142.2053  137.8268  159.2338 C.3     1  UNL1        0.1149
     14 C         143.7654  134.6079  156.3216 C.ar    1  UNL1        0.1817
     15 N         144.1692  135.5776  155.2507 N.ar    1  UNL1       -0.0586
     16 O         143.6871  136.9398  155.6533 O.2     1  UNL1       -0.3167
     17 C         142.9853  136.8119  156.9728 C.ar    1  UNL1        0.3183
     18 N         143.0337  135.3707  157.3858 N.ar    1  UNL1       -0.1779
     19 C         144.7707  132.5125  157.4829 C.3     1  UNL1        0.0081
     20 C         144.0443  133.1340  156.3271 C.3     1  UNL1        0.0621
     21 C         143.5969  132.2817  155.1767 C.3     1  UNL1        0.0081
     22 O         138.5183  144.6323  162.3708 O.3     1  UNL1       -0.4674
     23 C         137.9584  144.3754  163.7385 C.3     1  UNL1        0.2344
     24 C         138.5412  143.2915  164.5961 C.ar    1  UNL1        0.0486
     25 C         139.6520  143.6080  165.5531 C.ar    1  UNL1        0.0013
     26 C         140.2348  142.5241  166.4107 C.ar    1  UNL1       -0.0026
     27 C         139.7068  141.1236  166.3112 C.ar    1  UNL1        0.0035
     28 C         138.5961  140.8071  165.3541 C.ar    1  UNL1        0.0269
     29 C         138.0133  141.8910  164.4966 C.ar    1  UNL1        0.1393
     30 F         136.9025  141.5744  163.5395 F       1  UNL1       -0.2044
     31 C         140.2896  140.0397  167.1688 C.3     1  UNL1        0.1773
     32 S         140.2253  140.1496  168.6633 S.O2    1  UNL1       -0.0040
     33 C         140.1609  140.2596  170.1579 C.3     1  UNL1        0.1764
     34 O         141.6589  140.5897  168.6927 O.2     1  UNL1       -0.1726
     35 O         138.7916  139.7095  168.6339 O.2     1  UNL1       -0.1726
@<TRIPOS>BOND
     1    19    20    1
     2    20    21    1
     3    20    14    1
     4    14    15   ar
     5    15    16   ar
     6    16    17   ar
     7    17     7    1
     8     7     8    1
     9     8     9    1
    10     9    10    1
    11    10     1    1
    12     1     2   ar
    13     2     3   ar
    14     3     4   ar
    15     4    22    1
    16    22    23    1
    17    23    24    1
    18    24    25   ar
    19    25    26   ar
    20    26    27   ar
    21    27    31    1
    22    31    32    1
    23    32    33    1
    24    32    34    2
    25    32    35    2
    26    27    28   ar
    27    28    29   ar
    28    29    30    1
    29     4     5   ar
    30     5     6   ar
    31    10    11    1
    32    11    12    1
    33    11    13    1
    34    17    18   ar
    35    18    14   ar
    36    13     7    1
    37     6     1   ar
    38    29    24   ar
@<TRIPOS>MOLECULE
*****
 35 38 0 0 0
SMALL
GASTEIGER

@<TRIPOS>ATOM
      1 C         140.9693  144.5738  159.6872 C.ar    1  UNL1        0.2204
      2 N         141.9935  145.4753  159.0640 N.ar    1  UNL1       -0.2089
      3 C         141.8489  145.8975  157.6319 C.ar    1  UNL1        0.1402
      4 C         140.6801  145.4181  156.8230 C.ar    1  UNL1        0.1773
      5 C         139.6560  144.5166  157.4463 C.ar    1  UNL1        0.1402
      6 N         139.8006  144.0945  158.8784 N.ar    1  UNL1       -0.2089
      7 N         141.4031  143.3073  163.9834 N.pl3   1  UNL1       -0.2586
      8 C         141.9784  142.4576  162.8894 C.3     1  UNL1        0.1167
      9 C         141.8338  142.8798  161.4573 C.3     1  UNL1        0.1151
     10 N         141.1139  144.1516  161.1194 N.pl3   1  UNL1       -0.2764
     11 C         140.5386  145.0013  162.2135 C.3     1  UNL1        0.0955
     12 C         139.8186  146.2731  161.8755 C.3     1  UNL1        0.0233
     13 C         140.6832  144.5791  163.6455 C.3     1  UNL1        0.1149
     14 C         141.0686  142.4620  167.7570 C.ar    1  UNL1        0.1817
     15 N         142.4718  142.0088  167.4817 N.ar    1  UNL1       -0.0586
     16 O         142.7679  142.2703  166.0347 O.2     1  UNL1       -0.3167
     17 C         141.5477  142.8851  165.4156 C.ar    1  UNL1        0.3183
     18 N         140.4975  143.0036  166.4800 N.ar    1  UNL1       -0.1779
     19 C         140.2997  143.5942  169.9654 C.3     1  UNL1        0.0081
     20 C         140.3608  142.3869  169.0774 C.3     1  UNL1        0.0621
     21 C         139.7142  141.1044  169.5098 C.3     1  UNL1        0.0081
     22 O         140.5355  145.8402  155.3910 O.3     1  UNL1       -0.4674
     23 C         139.3054  146.5742  154.9460 C.3     1  UNL1        0.2344
     24 C         139.3590  148.0548  154.7115 C.ar    1  UNL1        0.0486
     25 C         139.9177  148.5909  153.4269 C.ar    1  UNL1        0.0013
     26 C         139.9714  150.0715  153.1924 C.ar    1  UNL1       -0.0026
     27 C         139.4663  151.0159  154.2426 C.ar    1  UNL1        0.0035
     28 C         138.9076  150.4798  155.5273 C.ar    1  UNL1        0.0269
     29 C         138.8540  148.9993  155.7617 C.ar    1  UNL1        0.1393
     30 F         138.2953  148.4631  157.0465 F       1  UNL1       -0.2044
     31 C         139.5200  152.4966  154.0082 C.3     1  UNL1        0.1773
     32 S         140.7257  153.1101  153.3603 S.O2    1  UNL1       -0.0040
     33 C         141.9316  153.7237  152.7125 C.3     1  UNL1        0.1764
     34 O         139.8822  153.5392  152.1966 O.2     1  UNL1       -0.1726
     35 O         141.5693  152.6811  154.5240 O.2     1  UNL1       -0.1726
@<TRIPOS>BOND
     1    19    20    1
     2    20    21    1
     3    20    14    1
     4    14    15   ar
     5    15    16   ar
     6    16    17   ar
     7    17     7    1
     8     7     8    1
     9     8     9    1
    10     9    10    1
    11    10     1    1
    12     1     2   ar
    13     2     3   ar
    14     3     4   ar
    15     4    22    1
    16    22    23    1
    17    23    24    1
    18    24    25   ar
    19    25    26   ar
    20    26    27   ar
    21    27    31    1
    22    31    32    1
    23    32    33    1
    24    32    34    2
    25    32    35    2
    26    27    28   ar
    27    28    29   ar
    28    29    30    1
    29     4     5   ar
    30     5     6   ar
    31    10    11    1
    32    11    12    1
    33    11    13    1
    34    17    18   ar
    35    18    14   ar
    36    13     7    1
    37     6     1   ar
    38    29    24   ar
@<TRIPOS>MOLECULE
*****
 35 38 0 0 0
SMALL
GASTEIGER

@<TRIPOS>ATOM
      1 C         141.0770  141.5604  159.0655 C.ar    1  UNL1        0.2204
      2 N         142.0166  142.7269  159.1454 N.ar    1  UNL1       -0.2089
      3 C         141.5307  144.0470  159.6665 C.ar    1  UNL1        0.1402
      4 C         140.1053  144.2004  160.1077 C.ar    1  UNL1        0.1773
      5 C         139.1658  143.0338  160.0278 C.ar    1  UNL1        0.1402
      6 N         139.6516  141.7138  159.5067 N.ar    1  UNL1       -0.2089
      7 N         142.5345  137.6004  157.5021 N.pl3   1  UNL1       -0.2586
      8 C         141.9404  138.6057  156.5606 C.3     1  UNL1        0.1167
      9 C         141.4545  139.9256  157.0818 C.3     1  UNL1        0.1151
     10 N         141.5629  140.2403  158.5444 N.pl3   1  UNL1       -0.2764
     11 C         142.1570  139.2351  159.4858 C.3     1  UNL1        0.0955
     12 C         142.2653  139.5498  160.9485 C.3     1  UNL1        0.0233
     13 C         142.6428  137.9151  158.9647 C.3     1  UNL1        0.1149
     14 C         143.7114  133.9566  156.8673 C.ar    1  UNL1        0.1817
     15 N         143.8244  134.5416  155.4907 N.ar    1  UNL1       -0.0586
     16 O         143.3973  135.9778  155.5610 O.2     1  UNL1       -0.3167
     17 C         143.0203  136.2803  156.9810 C.ar    1  UNL1        0.3183
     18 N         143.2145  135.0312  157.7883 N.ar    1  UNL1       -0.1779
     19 C         145.3356  132.2366  157.9416 C.3     1  UNL1        0.0081
     20 C         144.0381  132.5448  157.2549 C.3     1  UNL1        0.0621
     21 C         143.0673  131.4412  156.9558 C.3     1  UNL1        0.0081
     22 O         139.6195  145.5204  160.6288 O.3     1  UNL1       -0.4674
     23 C         139.9625  145.9476  162.0251 C.3     1  UNL1        0.2344
     24 C         139.9792  144.9390  163.1353 C.ar    1  UNL1        0.0486
     25 C         141.2735  144.5798  163.8028 C.ar    1  UNL1        0.0013
     26 C         141.2902  143.5712  164.9130 C.ar    1  UNL1       -0.0026
     27 C         140.0125  142.9219  165.3556 C.ar    1  UNL1        0.0035
     28 C         138.7182  143.2811  164.6882 C.ar    1  UNL1        0.0269
     29 C         138.7015  144.2897  163.5780 C.ar    1  UNL1        0.1393
     30 F         137.4071  144.6490  162.9105 F       1  UNL1       -0.2044
     31 C         140.0293  141.9133  166.4659 C.3     1  UNL1        0.1773
     32 S         140.9691  140.7459  166.4045 S.O2    1  UNL1       -0.0040
     33 C         141.9090  139.5784  166.3431 C.3     1  UNL1        0.1764
     34 O         140.1919  140.1808  165.2527 O.2     1  UNL1       -0.1726
     35 O         141.7463  141.3109  167.5563 O.2     1  UNL1       -0.1726
@<TRIPOS>BOND
     1    19    20    1
     2    20    21    1
     3    20    14    1
     4    14    15   ar
     5    15    16   ar
     6    16    17   ar
     7    17     7    1
     8     7     8    1
     9     8     9    1
    10     9    10    1
    11    10     1    1
    12     1     2   ar
    13     2     3   ar
    14     3     4   ar
    15     4    22    1
    16    22    23    1
    17    23    24    1
    18    24    25   ar
    19    25    26   ar
    20    26    27   ar
    21    27    31    1
    22    31    32    1
    23    32    33    1
    24    32    34    2
    25    32    35    2
    26    27    28   ar
    27    28    29   ar
    28    29    30    1
    29     4     5   ar
    30     5     6   ar
    31    10    11    1
    32    11    12    1
    33    11    13    1
    34    17    18   ar
    35    18    14   ar
    36    13     7    1
    37     6     1   ar
    38    29    24   ar
@<TRIPOS>MOLECULE
*****
 35 38 0 0 0
SMALL
GASTEIGER

@<TRIPOS>ATOM
      1 C         141.7173  138.8639  159.8439 C.ar    1  UNL1        0.2204
      2 N         140.2399  139.0813  159.7024 N.ar    1  UNL1       -0.2089
      3 C         139.3068  138.6177  160.7816 C.ar    1  UNL1        0.1402
      4 C         139.8512  137.9368  162.0022 C.ar    1  UNL1        0.1773
      5 C         141.3287  137.7194  162.1437 C.ar    1  UNL1        0.1402
      6 N         142.2617  138.1829  161.0646 N.ar    1  UNL1       -0.2089
      7 N         144.5165  140.2545  156.6066 N.pl3   1  UNL1       -0.2586
      8 C         144.4452  140.9986  157.9071 C.3     1  UNL1        0.1167
      9 C         143.5122  140.5350  158.9861 C.3     1  UNL1        0.1151
     10 N         142.6504  139.3274  158.7647 N.pl3   1  UNL1       -0.2764
     11 C         142.7216  138.5834  157.4643 C.3     1  UNL1        0.0955
     12 C         141.8598  137.3758  157.2429 C.3     1  UNL1        0.0233
     13 C         143.6547  139.0469  156.3852 C.3     1  UNL1        0.1149
     14 C         147.3526  141.7024  154.3871 C.ar    1  UNL1        0.1817
     15 N         146.4182  141.1604  153.3464 N.ar    1  UNL1       -0.0586
     16 O         145.2420  140.5521  154.0511 O.2     1  UNL1       -0.3167
     17 C         145.4496  140.7181  155.5274 C.ar    1  UNL1        0.3183
     18 N         146.7540  141.4290  155.7351 N.ar    1  UNL1       -0.1779
     19 C         148.6958  143.6160  153.2542 C.3     1  UNL1        0.0081
     20 C         148.6567  142.3959  154.1258 C.3     1  UNL1        0.0621
     21 C         149.9218  141.8694  154.7361 C.3     1  UNL1        0.0081
     22 O         138.9182  137.4732  163.0814 O.3     1  UNL1       -0.4674
     23 C         138.8165  138.2413  164.3658 C.3     1  UNL1        0.2344
     24 C         138.8114  139.7412  164.3444 C.ar    1  UNL1        0.0486
     25 C         137.6922  140.4778  163.6701 C.ar    1  UNL1        0.0013
     26 C         137.6872  141.9777  163.6487 C.ar    1  UNL1       -0.0026
     27 C         138.8013  142.7408  164.3017 C.ar    1  UNL1        0.0035
     28 C         139.9205  142.0041  164.9760 C.ar    1  UNL1        0.0269
     29 C         139.9255  140.5043  164.9973 C.ar    1  UNL1        0.1393
     30 F         141.0448  139.7676  165.6716 F       1  UNL1       -0.2044
     31 C         138.7963  144.2407  164.2803 C.3     1  UNL1        0.1773
     32 S         139.3967  144.9762  163.1191 S.O2    1  UNL1       -0.0040
     33 C         139.9971  145.7118  161.9578 C.3     1  UNL1        0.1764
     34 O         140.7241  144.9948  163.8173 O.2     1  UNL1       -0.1726
     35 O         138.0692  144.9576  162.4209 O.2     1  UNL1       -0.1726
@<TRIPOS>BOND
     1    19    20    1
     2    20    21    1
     3    20    14    1
     4    14    15   ar
     5    15    16   ar
     6    16    17   ar
     7    17     7    1
     8     7     8    1
     9     8     9    1
    10     9    10    1
    11    10     1    1
    12     1     2   ar
    13     2     3   ar
    14     3     4   ar
    15     4    22    1
    16    22    23    1
    17    23    24    1
    18    24    25   ar
    19    25    26   ar
    20    26    27   ar
    21    27    31    1
    22    31    32    1
    23    32    33    1
    24    32    34    2
    25    32    35    2
    26    27    28   ar
    27    28    29   ar
    28    29    30    1
    29     4     5   ar
    30     5     6   ar
    31    10    11    1
    32    11    12    1
    33    11    13    1
    34    17    18   ar
    35    18    14   ar
    36    13     7    1
    37     6     1   ar
    38    29    24   ar
