@<TRIPOS>MOLECULE
*****
 32 35 0 0 0
SMALL
GASTEIGER

@<TRIPOS>ATOM
      1 C         140.2665  138.2550  161.2851 C.3     1  UNL1        0.0622
      2 C         139.9512  138.6192  159.8645 C.3     1  UNL1        0.0164
      3 C         141.0626  138.9201  158.9032 C.3     1  UNL1        0.0028
      4 C         142.4892  138.8568  159.3622 C.3     1  UNL1        0.0174
      5 C         142.8045  138.4925  160.7828 C.3     1  UNL1        0.0723
      6 N         141.6931  138.1916  161.7441 N.3     1  UNL1       -0.2699
      7 C         139.1551  137.9540  162.2466 C.3     1  UNL1        0.0432
      8 C         138.7634  137.4573  165.4481 C.3     1  UNL1        0.0517
      9 C         138.5555  138.7551  164.7252 C.2     1  UNL1        0.0551
     10 N         138.1309  140.0524  165.3470 N.2     1  UNL1       -0.2503
     11 C         138.0486  141.0825  164.2598 C.2     1  UNL1        0.0770
     12 C         137.6817  142.5368  164.2806 C.2     1  UNL1        0.0184
     13 C         137.6884  143.3304  163.0078 C.2     1  UNL1       -0.0027
     14 C         138.0621  142.6697  161.7140 C.2     1  UNL1       -0.0213
     15 C         138.4290  141.2154  161.6931 C.3     1  UNL1        0.0535
     16 C         138.4223  140.4218  162.9660 C.2     1  UNL1       -0.0030
     17 C         138.7355  138.9834  163.2536 C.2     1  UNL1       -0.0095
     18 C         142.0083  137.8273  163.1647 C.3     1  UNL1        0.0991
     19 C         142.1277  138.9009  164.2054 C.ar    1  UNL1       -0.0061
     20 C         142.0931  140.3450  163.8008 C.ar    1  UNL1       -0.0029
     21 C         142.2125  141.4186  164.8415 C.ar    1  UNL1       -0.0003
     22 C         142.3665  141.0482  166.2869 C.ar    1  UNL1        0.0001
     23 C         142.4012  139.6042  166.6915 C.ar    1  UNL1       -0.0003
     24 C         142.2818  138.5306  165.6508 C.ar    1  UNL1       -0.0029
     25 C         142.4859  142.1218  167.3276 C.2     1  UNL1        0.0047
     26 C         142.2207  141.8020  168.7689 C.2     1  UNL1        0.0598
     27 C         142.3401  142.8756  169.8096 C.2     1  UNL1        0.2679
     28 O         141.1279  143.6551  170.2255 O.2     1  UNL1       -0.2681
     29 N         143.6717  143.1699  170.4345 N.am    1  UNL1       -0.1934
     30 O         143.7911  144.2435  171.4752 O.3     1  UNL1       -0.2949
     31 H         144.4673  142.6583  170.1615 H       1  UNL1        0.1825
     32 H         142.9214  144.6457  171.6260 H       1  UNL1        0.2414
@<TRIPOS>BOND
     1     8     9    1
     2     9    10    2
     3    10    11    1
     4    11    12    2
     5    12    13    1
     6    13    14    2
     7    14    15    1
     8    15    16    1
     9    16    17    2
    10    17     7    1
    11     7     1    1
    12     1     2    1
    13     2     3    1
    14     3     4    1
    15     4     5    1
    16     5     6    1
    17     6    18    1
    18    18    19    1
    19    19    20   ar
    20    20    21   ar
    21    21    22   ar
    22    22    25    1
    23    25    26    2
    24    26    27    1
    25    27    28    2
    26    27    29   am
    27    29    30    1
    28    22    23   ar
    29    23    24   ar
    30    17     9    1
    31     6     1    1
    32    24    19   ar
    33    16    11    1
    34    29    31    1
    35    30    32    1
@<TRIPOS>MOLECULE
*****
 32 35 0 0 0
SMALL
GASTEIGER

@<TRIPOS>ATOM
      1 C         141.0228  139.3825  161.4177 C.3     1  UNL1        0.0622
      2 C         141.8372  140.1375  160.4093 C.3     1  UNL1        0.0164
      3 C         143.3083  139.8729  160.2838 C.3     1  UNL1        0.0028
      4 C         143.9651  138.8535  161.1667 C.3     1  UNL1        0.0174
      5 C         143.1507  138.0986  162.1751 C.3     1  UNL1        0.0723
      6 N         141.6796  138.3631  162.3005 N.3     1  UNL1       -0.2699
      7 C         139.5516  139.6470  161.5432 C.3     1  UNL1        0.0432
      8 C         138.3443  141.2799  158.9886 C.3     1  UNL1        0.0517
      9 C         138.4870  141.8082  160.3852 C.2     1  UNL1        0.0551
     10 N         138.0999  143.1798  160.8527 N.2     1  UNL1       -0.2503
     11 C         138.4155  143.2771  162.3159 C.2     1  UNL1        0.0770
     12 C         138.2480  144.3904  163.3070 C.2     1  UNL1        0.0184
     13 C         138.6627  144.1923  164.7349 C.2     1  UNL1       -0.0027
     14 C         139.2449  142.8807  165.1716 C.2     1  UNL1       -0.0213
     15 C         139.4125  141.7673  164.1805 C.3     1  UNL1        0.0535
     16 C         138.9978  141.9655  162.7527 C.2     1  UNL1       -0.0030
     17 C         139.0420  141.0576  161.5594 C.2     1  UNL1       -0.0095
     18 C         140.8651  137.6082  163.3089 C.3     1  UNL1        0.0991
     19 C         140.4889  138.2583  164.6073 C.ar    1  UNL1       -0.0061
     20 C         139.0703  138.2010  165.0916 C.ar    1  UNL1       -0.0029
     21 C         138.6941  138.8511  166.3899 C.ar    1  UNL1       -0.0003
     22 C         139.7365  139.5586  167.2041 C.ar    1  UNL1        0.0001
     23 C         141.1550  139.6159  166.7199 C.ar    1  UNL1       -0.0003
     24 C         141.5312  138.9658  165.4216 C.ar    1  UNL1       -0.0029
     25 C         139.3603  140.2087  168.5025 C.2     1  UNL1        0.0047
     26 C         140.3653  141.0392  169.2443 C.2     1  UNL1        0.0598
     27 C         139.9891  141.6893  170.5427 C.2     1  UNL1        0.2679
     28 O         140.3749  141.0474  171.8423 O.2     1  UNL1       -0.2681
     29 N         139.2270  142.9814  170.5415 N.am    1  UNL1       -0.1934
     30 O         138.8508  143.6315  171.8399 O.3     1  UNL1       -0.2949
     31 H         138.9737  143.4027  169.6885 H       1  UNL1        0.1825
     32 H         139.1737  143.0909  172.5777 H       1  UNL1        0.2414
@<TRIPOS>BOND
     1     8     9    1
     2     9    10    2
     3    10    11    1
     4    11    12    2
     5    12    13    1
     6    13    14    2
     7    14    15    1
     8    15    16    1
     9    16    17    2
    10    17     7    1
    11     7     1    1
    12     1     2    1
    13     2     3    1
    14     3     4    1
    15     4     5    1
    16     5     6    1
    17     6    18    1
    18    18    19    1
    19    19    20   ar
    20    20    21   ar
    21    21    22   ar
    22    22    25    1
    23    25    26    2
    24    26    27    1
    25    27    28    2
    26    27    29   am
    27    29    30    1
    28    22    23   ar
    29    23    24   ar
    30    17     9    1
    31     6     1    1
    32    24    19   ar
    33    16    11    1
    34    29    31    1
    35    30    32    1
@<TRIPOS>MOLECULE
*****
 32 35 0 0 0
SMALL
GASTEIGER

@<TRIPOS>ATOM
      1 C         141.1177  138.7675  161.6239 C.3     1  UNL1        0.0622
      2 C         140.3674  139.3377  160.4569 C.3     1  UNL1        0.0164
      3 C         138.8869  139.1266  160.3417 C.3     1  UNL1        0.0028
      4 C         138.1566  138.3452  161.3935 C.3     1  UNL1        0.0174
      5 C         138.9069  137.7750  162.5605 C.3     1  UNL1        0.0723
      6 N         140.3875  137.9861  162.6756 N.3     1  UNL1       -0.2699
      7 C         142.5984  138.9786  161.7391 C.3     1  UNL1        0.0432
      8 C         143.7895  140.1005  158.9155 C.3     1  UNL1        0.0517
      9 C         143.7294  140.8565  160.2097 C.2     1  UNL1        0.0551
     10 N         144.2063  142.2610  160.4332 N.2     1  UNL1       -0.2503
     11 C         143.9536  142.6134  161.8691 C.2     1  UNL1        0.0770
     12 C         144.2181  143.8615  162.6580 C.2     1  UNL1        0.0184
     13 C         143.8496  143.9229  164.1107 C.2     1  UNL1       -0.0027
     14 C         143.2165  142.7362  164.7746 C.2     1  UNL1       -0.0213
     15 C         142.9519  141.4880  163.9858 C.3     1  UNL1        0.0535
     16 C         143.3205  141.4266  162.5331 C.2     1  UNL1       -0.0030
     17 C         143.1819  140.3408  161.5075 C.2     1  UNL1       -0.0095
     18 C         141.1379  137.4159  163.8426 C.3     1  UNL1        0.0991
     19 C         141.4533  138.2812  165.0265 C.ar    1  UNL1       -0.0061
     20 C         140.4156  139.2197  165.5675 C.ar    1  UNL1       -0.0029
     21 C         140.7311  140.0850  166.7514 C.ar    1  UNL1       -0.0003
     22 C         142.0843  140.0118  167.3945 C.ar    1  UNL1        0.0001
     23 C         143.1219  139.0734  166.8536 C.ar    1  UNL1       -0.0003
     24 C         142.8065  138.2081  165.6697 C.ar    1  UNL1       -0.0029
     25 C         142.3997  140.8771  168.5784 C.2     1  UNL1        0.0047
     26 C         141.7688  142.2319  168.7065 C.2     1  UNL1        0.0598
     27 C         142.0842  143.0972  169.8904 C.2     1  UNL1        0.2679
     28 O         140.9765  143.7794  170.6373 O.2     1  UNL1       -0.2681
     29 N         143.5074  143.2805  170.3277 N.am    1  UNL1       -0.1934
     30 O         143.8229  144.1458  171.5116 O.3     1  UNL1       -0.2949
     31 H         144.2345  142.8328  169.8376 H       1  UNL1        0.1825
     32 H         143.0000  144.5079  171.8758 H       1  UNL1        0.2414
@<TRIPOS>BOND
     1     8     9    1
     2     9    10    2
     3    10    11    1
     4    11    12    2
     5    12    13    1
     6    13    14    2
     7    14    15    1
     8    15    16    1
     9    16    17    2
    10    17     7    1
    11     7     1    1
    12     1     2    1
    13     2     3    1
    14     3     4    1
    15     4     5    1
    16     5     6    1
    17     6    18    1
    18    18    19    1
    19    19    20   ar
    20    20    21   ar
    21    21    22   ar
    22    22    25    1
    23    25    26    2
    24    26    27    1
    25    27    28    2
    26    27    29   am
    27    29    30    1
    28    22    23   ar
    29    23    24   ar
    30    17     9    1
    31     6     1    1
    32    24    19   ar
    33    16    11    1
    34    29    31    1
    35    30    32    1
@<TRIPOS>MOLECULE
*****
 32 35 0 0 0
SMALL
GASTEIGER

@<TRIPOS>ATOM
      1 C         138.9885  143.2512  161.3395 C.3     1  UNL1        0.0622
      2 C         139.3881  142.9666  159.9220 C.3     1  UNL1        0.0164
      3 C         140.4557  143.7897  159.2642 C.3     1  UNL1        0.0028
      4 C         141.1237  144.8973  160.0238 C.3     1  UNL1        0.0174
      5 C         140.7240  145.1818  161.4413 C.3     1  UNL1        0.0723
      6 N         139.6564  144.3588  162.0991 N.3     1  UNL1       -0.2699
      7 C         137.9208  142.4281  161.9974 C.3     1  UNL1        0.0432
      8 C         137.8899  140.2010  159.6122 C.3     1  UNL1        0.0517
      9 C         138.0977  139.9266  161.0722 C.2     1  UNL1        0.0551
     10 N         138.3278  138.5802  161.6921 N.2     1  UNL1       -0.2503
     11 C         138.4842  138.7717  163.1715 C.2     1  UNL1        0.0770
     12 C         138.7308  137.8016  164.2887 C.2     1  UNL1        0.0184
     13 C         138.8441  138.2962  165.7003 C.2     1  UNL1       -0.0027
     14 C         138.7107  139.7610  165.9947 C.2     1  UNL1       -0.0213
     15 C         138.4640  140.7311  164.8776 C.3     1  UNL1        0.0535
     16 C         138.3507  140.2365  163.4660 C.2     1  UNL1       -0.0030
     17 C         138.1119  140.9503  162.1685 C.2     1  UNL1       -0.0095
     18 C         139.2567  144.6432  163.5167 C.3     1  UNL1        0.0991
     19 C         139.9164  143.9060  164.6442 C.ar    1  UNL1       -0.0061
     20 C         141.1661  143.1150  164.3938 C.ar    1  UNL1       -0.0029
     21 C         141.8258  142.3778  165.5213 C.ar    1  UNL1       -0.0003
     22 C         141.2357  142.4315  166.8993 C.ar    1  UNL1        0.0001
     23 C         139.9860  143.2225  167.1498 C.ar    1  UNL1       -0.0003
     24 C         139.3264  143.9597  166.0222 C.ar    1  UNL1       -0.0029
     25 C         141.8953  141.6943  168.0269 C.2     1  UNL1        0.0047
     26 C         141.3596  141.8228  169.4220 C.2     1  UNL1        0.0598
     27 C         142.0192  141.0855  170.5495 C.2     1  UNL1        0.2679
     28 O         141.3799  141.0625  171.9063 O.2     1  UNL1       -0.2681
     29 N         143.3182  140.3712  170.3204 N.am    1  UNL1       -0.1934
     30 O         143.9779  139.6340  171.4479 O.3     1  UNL1       -0.2949
     31 H         143.7379  140.3863  169.4299 H       1  UNL1        0.1825
     32 H         143.4378  139.7184  172.2492 H       1  UNL1        0.2414
@<TRIPOS>BOND
     1     8     9    1
     2     9    10    2
     3    10    11    1
     4    11    12    2
     5    12    13    1
     6    13    14    2
     7    14    15    1
     8    15    16    1
     9    16    17    2
    10    17     7    1
    11     7     1    1
    12     1     2    1
    13     2     3    1
    14     3     4    1
    15     4     5    1
    16     5     6    1
    17     6    18    1
    18    18    19    1
    19    19    20   ar
    20    20    21   ar
    21    21    22   ar
    22    22    25    1
    23    25    26    2
    24    26    27    1
    25    27    28    2
    26    27    29   am
    27    29    30    1
    28    22    23   ar
    29    23    24   ar
    30    17     9    1
    31     6     1    1
    32    24    19   ar
    33    16    11    1
    34    29    31    1
    35    30    32    1
@<TRIPOS>MOLECULE
*****
 32 35 0 0 0
SMALL
GASTEIGER

@<TRIPOS>ATOM
      1 C         142.2623  141.1782  168.2722 C.3     1  UNL1        0.0622
      2 C         143.2149  141.6503  169.3304 C.3     1  UNL1        0.0164
      3 C         142.8265  142.7780  170.2399 C.3     1  UNL1        0.0028
      4 C         141.4855  143.4336  170.0914 C.3     1  UNL1        0.0174
      5 C         140.5329  142.9614  169.0333 C.3     1  UNL1        0.0723
      6 N         140.9213  141.8337  168.1238 N.3     1  UNL1       -0.2699
      7 C         142.6506  140.0504  167.3626 C.3     1  UNL1        0.0432
      8 C         141.9359  137.9183  164.9976 C.3     1  UNL1        0.0517
      9 C         142.4606  139.3098  164.8013 C.2     1  UNL1        0.0551
     10 N         142.7489  139.9655  163.4834 N.2     1  UNL1       -0.2503
     11 C         143.2556  141.3507  163.7559 C.2     1  UNL1        0.0770
     12 C         143.6976  142.4556  162.8427 C.2     1  UNL1        0.0184
     13 C         144.1644  143.7608  163.4158 C.2     1  UNL1       -0.0027
     14 C         144.1893  143.9612  164.9021 C.2     1  UNL1       -0.0213
     15 C         143.7473  142.8564  165.8154 C.3     1  UNL1        0.0535
     16 C         143.2805  141.5512  165.2423 C.2     1  UNL1       -0.0030
     17 C         142.7891  140.2897  165.8884 C.2     1  UNL1       -0.0095
     18 C         139.9687  141.3615  167.0656 C.3     1  UNL1        0.0991
     19 C         139.9136  142.0611  165.7399 C.ar    1  UNL1       -0.0061
     20 C         140.2121  143.5286  165.6532 C.ar    1  UNL1       -0.0029
     21 C         140.1570  144.2283  164.3275 C.ar    1  UNL1       -0.0003
     22 C         139.8033  143.4604  163.0884 C.ar    1  UNL1        0.0001
     23 C         139.5048  141.9930  163.1751 C.ar    1  UNL1       -0.0003
     24 C         139.5600  141.2933  164.5008 C.ar    1  UNL1       -0.0029
     25 C         139.7482  144.1600  161.7627 C.2     1  UNL1        0.0047
     26 C         141.0109  144.6584  161.1247 C.2     1  UNL1        0.0598
     27 C         140.9558  145.3581  159.7990 C.2     1  UNL1        0.2679
     28 O         139.6386  145.8170  159.2473 O.2     1  UNL1       -0.2681
     29 N         142.2179  145.5989  159.0249 N.am    1  UNL1       -0.1934
     30 O         142.1628  146.2985  157.6992 O.3     1  UNL1       -0.2949
     31 H         143.0825  145.2977  159.3869 H       1  UNL1        0.1825
     32 H         141.2430  146.5261  157.4917 H       1  UNL1        0.2414
@<TRIPOS>BOND
     1     8     9    1
     2     9    10    2
     3    10    11    1
     4    11    12    2
     5    12    13    1
     6    13    14    2
     7    14    15    1
     8    15    16    1
     9    16    17    2
    10    17     7    1
    11     7     1    1
    12     1     2    1
    13     2     3    1
    14     3     4    1
    15     4     5    1
    16     5     6    1
    17     6    18    1
    18    18    19    1
    19    19    20   ar
    20    20    21   ar
    21    21    22   ar
    22    22    25    1
    23    25    26    2
    24    26    27    1
    25    27    28    2
    26    27    29   am
    27    29    30    1
    28    22    23   ar
    29    23    24   ar
    30    17     9    1
    31     6     1    1
    32    24    19   ar
    33    16    11    1
    34    29    31    1
    35    30    32    1
@<TRIPOS>MOLECULE
*****
 32 35 0 0 0
SMALL
GASTEIGER

@<TRIPOS>ATOM
      1 C         140.2350  139.7653  161.1200 C.3     1  UNL1        0.0622
      2 C         140.6615  140.6688  160.0012 C.3     1  UNL1        0.0164
      3 C         139.7765  141.8019  159.5734 C.3     1  UNL1        0.0028
      4 C         138.4651  142.0314  160.2644 C.3     1  UNL1        0.0174
      5 C         138.0386  141.1279  161.3832 C.3     1  UNL1        0.0723
      6 N         138.9235  139.9948  161.8110 N.3     1  UNL1       -0.2699
      7 C         141.1200  138.6322  161.5478 C.3     1  UNL1        0.0432
      8 C         141.2574  136.9639  164.3492 C.3     1  UNL1        0.0517
      9 C         142.1833  138.0688  163.9346 C.2     1  UNL1        0.0551
     10 N         143.3350  138.6008  164.7349 N.2     1  UNL1       -0.2503
     11 C         143.9836  139.6964  163.9420 C.2     1  UNL1        0.0770
     12 C         145.1609  140.5808  164.2281 C.2     1  UNL1        0.0184
     13 C         145.5874  141.6102  163.2239 C.2     1  UNL1       -0.0027
     14 C         144.8366  141.7553  161.9335 C.2     1  UNL1       -0.0213
     15 C         143.6593  140.8710  161.6473 C.3     1  UNL1        0.0535
     16 C         143.2328  139.8415  162.6515 C.2     1  UNL1       -0.0030
     17 C         142.1201  138.8356  162.6470 C.2     1  UNL1       -0.0095
     18 C         138.4971  139.0912  162.9298 C.3     1  UNL1        0.0991
     19 C         138.7929  139.4670  164.3515 C.ar    1  UNL1       -0.0061
     20 C         138.2434  138.6400  165.4759 C.ar    1  UNL1       -0.0029
     21 C         138.5391  139.0158  166.8976 C.ar    1  UNL1       -0.0003
     22 C         139.3845  140.2187  167.1950 C.ar    1  UNL1        0.0001
     23 C         139.9340  141.0458  166.0707 C.ar    1  UNL1       -0.0003
     24 C         139.6382  140.6699  164.6490 C.ar    1  UNL1       -0.0029
     25 C         139.6802  140.5946  168.6167 C.2     1  UNL1        0.0047
     26 C         140.3144  141.9182  168.9261 C.2     1  UNL1        0.0598
     27 C         140.6102  142.2940  170.3478 C.2     1  UNL1        0.2679
     28 O         139.5469  142.9324  171.1916 O.2     1  UNL1       -0.2681
     29 N         141.9693  142.0314  170.9259 N.am    1  UNL1       -0.1934
     30 O         142.2650  142.4073  172.3476 O.3     1  UNL1       -0.2949
     31 H         142.6671  141.6124  170.3721 H       1  UNL1        0.1825
     32 H         141.4761  142.8054  172.7476 H       1  UNL1        0.2414
@<TRIPOS>BOND
     1     8     9    1
     2     9    10    2
     3    10    11    1
     4    11    12    2
     5    12    13    1
     6    13    14    2
     7    14    15    1
     8    15    16    1
     9    16    17    2
    10    17     7    1
    11     7     1    1
    12     1     2    1
    13     2     3    1
    14     3     4    1
    15     4     5    1
    16     5     6    1
    17     6    18    1
    18    18    19    1
    19    19    20   ar
    20    20    21   ar
    21    21    22   ar
    22    22    25    1
    23    25    26    2
    24    26    27    1
    25    27    28    2
    26    27    29   am
    27    29    30    1
    28    22    23   ar
    29    23    24   ar
    30    17     9    1
    31     6     1    1
    32    24    19   ar
    33    16    11    1
    34    29    31    1
    35    30    32    1
@<TRIPOS>MOLECULE
*****
 32 35 0 0 0
SMALL
GASTEIGER

@<TRIPOS>ATOM
      1 C         141.6954  141.2514  160.8381 C.3     1  UNL1        0.0622
      2 C         141.3400  142.1163  159.6652 C.3     1  UNL1        0.0164
      3 C         142.4024  142.9225  158.9788 C.3     1  UNL1        0.0028
      4 C         143.8201  142.8638  159.4651 C.3     1  UNL1        0.0174
      5 C         144.1755  141.9989  160.6380 C.3     1  UNL1        0.0723
      6 N         143.1131  141.1927  161.3244 N.3     1  UNL1       -0.2699
      7 C         140.6329  140.4451  161.5247 C.3     1  UNL1        0.0432
      8 C         137.5212  139.5990  161.0239 C.3     1  UNL1        0.0517
      9 C         137.9992  140.7395  161.8729 C.2     1  UNL1        0.0551
     10 N         137.1306  141.6912  162.6409 N.2     1  UNL1       -0.2503
     11 C         138.0241  142.6684  163.3457 C.2     1  UNL1        0.0770
     12 C         137.7276  143.8300  164.2472 C.2     1  UNL1        0.0184
     13 C         138.8518  144.6438  164.8163 C.2     1  UNL1       -0.0027
     14 C         140.2726  144.2959  164.4840 C.2     1  UNL1       -0.0213
     15 C         140.5691  143.1343  163.5825 C.3     1  UNL1        0.0535
     16 C         139.4449  142.3205  163.0133 C.2     1  UNL1       -0.0030
     17 C         139.4294  141.1283  162.1031 C.2     1  UNL1       -0.0095
     18 C         143.4684  140.3278  162.4973 C.3     1  UNL1        0.0991
     19 C         143.1753  140.7972  163.8915 C.ar    1  UNL1       -0.0061
     20 C         143.8866  141.9967  164.4442 C.ar    1  UNL1       -0.0029
     21 C         143.5934  142.4662  165.8384 C.ar    1  UNL1       -0.0003
     22 C         142.5888  141.7362  166.6798 C.ar    1  UNL1        0.0001
     23 C         141.8775  140.5368  166.1271 C.ar    1  UNL1       -0.0003
     24 C         142.1707  140.0673  164.7330 C.ar    1  UNL1       -0.0029
     25 C         142.2956  142.2057  168.0739 C.2     1  UNL1        0.0047
     26 C         140.8784  142.4486  168.5010 C.2     1  UNL1        0.0598
     27 C         140.5852  142.9181  169.8951 C.2     1  UNL1        0.2679
     28 O         140.2768  144.3637  170.1504 O.2     1  UNL1       -0.2681
     29 N         140.6004  141.9420  171.0341 N.am    1  UNL1       -0.1934
     30 O         140.3072  142.4115  172.4282 O.3     1  UNL1       -0.2949
     31 H         140.8028  140.9932  170.8666 H       1  UNL1        0.1825
     32 H         140.1301  143.3652  172.4177 H       1  UNL1        0.2414
@<TRIPOS>BOND
     1     8     9    1
     2     9    10    2
     3    10    11    1
     4    11    12    2
     5    12    13    1
     6    13    14    2
     7    14    15    1
     8    15    16    1
     9    16    17    2
    10    17     7    1
    11     7     1    1
    12     1     2    1
    13     2     3    1
    14     3     4    1
    15     4     5    1
    16     5     6    1
    17     6    18    1
    18    18    19    1
    19    19    20   ar
    20    20    21   ar
    21    21    22   ar
    22    22    25    1
    23    25    26    2
    24    26    27    1
    25    27    28    2
    26    27    29   am
    27    29    30    1
    28    22    23   ar
    29    23    24   ar
    30    17     9    1
    31     6     1    1
    32    24    19   ar
    33    16    11    1
    34    29    31    1
    35    30    32    1
@<TRIPOS>MOLECULE
*****
 32 35 0 0 0
SMALL
GASTEIGER

@<TRIPOS>ATOM
      1 C         139.7706  143.0532  161.3426 C.3     1  UNL1        0.0622
      2 C         140.6251  143.9335  160.4795 C.3     1  UNL1        0.0164
      3 C         140.6433  145.4161  160.7063 C.3     1  UNL1        0.0028
      4 C         139.8071  146.0185  161.7962 C.3     1  UNL1        0.0174
      5 C         138.9526  145.1382  162.6593 C.3     1  UNL1        0.0723
      6 N         138.9344  143.6556  162.4325 N.3     1  UNL1       -0.2699
      7 C         139.7523  141.5705  161.1158 C.3     1  UNL1        0.0432
      8 C         139.2624  138.3621  161.4562 C.3     1  UNL1        0.0517
      9 C         140.2673  139.1852  162.2065 C.2     1  UNL1        0.0551
     10 N         141.2233  138.6779  163.2451 N.2     1  UNL1       -0.2503
     11 C         142.0394  139.8390  163.7305 C.2     1  UNL1        0.0770
     12 C         143.1355  139.9393  164.7496 C.2     1  UNL1        0.0184
     13 C         143.7798  141.2645  165.0301 C.2     1  UNL1       -0.0027
     14 C         143.3281  142.4894  164.2916 C.2     1  UNL1       -0.0213
     15 C         142.2320  142.3892  163.2725 C.3     1  UNL1        0.0535
     16 C         141.5876  141.0640  162.9919 C.2     1  UNL1       -0.0030
     17 C         140.4924  140.6598  162.0500 C.2     1  UNL1       -0.0095
     18 C         138.0799  142.7753  163.2956 C.3     1  UNL1        0.0991
     19 C         138.6583  142.1430  164.5267 C.ar    1  UNL1       -0.0061
     20 C         139.5779  142.9301  165.4127 C.ar    1  UNL1       -0.0029
     21 C         140.1563  142.2978  166.6439 C.ar    1  UNL1       -0.0003
     22 C         139.8151  140.8785  166.9890 C.ar    1  UNL1        0.0001
     23 C         138.8956  140.0915  166.1030 C.ar    1  UNL1       -0.0003
     24 C         138.3172  140.7237  164.8719 C.ar    1  UNL1       -0.0029
     25 C         140.3935  140.2462  168.2201 C.2     1  UNL1        0.0047
     26 C         141.8719  140.3018  168.4679 C.2     1  UNL1        0.0598
     27 C         142.4503  139.6696  169.6990 C.2     1  UNL1        0.2679
     28 O         142.4210  140.4067  171.0051 O.2     1  UNL1       -0.2681
     29 N         143.0580  138.3002  169.6242 N.am    1  UNL1       -0.1934
     30 O         143.6365  137.6680  170.8553 O.3     1  UNL1       -0.2949
     31 H         143.0773  137.8164  168.7670 H       1  UNL1        0.1825
     32 H         143.5369  138.2732  171.6068 H       1  UNL1        0.2414
@<TRIPOS>BOND
     1     8     9    1
     2     9    10    2
     3    10    11    1
     4    11    12    2
     5    12    13    1
     6    13    14    2
     7    14    15    1
     8    15    16    1
     9    16    17    2
    10    17     7    1
    11     7     1    1
    12     1     2    1
    13     2     3    1
    14     3     4    1
    15     4     5    1
    16     5     6    1
    17     6    18    1
    18    18    19    1
    19    19    20   ar
    20    20    21   ar
    21    21    22   ar
    22    22    25    1
    23    25    26    2
    24    26    27    1
    25    27    28    2
    26    27    29   am
    27    29    30    1
    28    22    23   ar
    29    23    24   ar
    30    17     9    1
    31     6     1    1
    32    24    19   ar
    33    16    11    1
    34    29    31    1
    35    30    32    1
@<TRIPOS>MOLECULE
*****
 32 35 0 0 0
SMALL
GASTEIGER

@<TRIPOS>ATOM
      1 C         143.0307  141.8167  161.0701 C.3     1  UNL1        0.0622
      2 C         142.3368  141.3801  159.8140 C.3     1  UNL1        0.0164
      3 C         142.5602  139.9981  159.2754 C.3     1  UNL1        0.0028
      4 C         143.4775  139.0527  159.9928 C.3     1  UNL1        0.0174
      5 C         144.1715  139.4893  161.2489 C.3     1  UNL1        0.0723
      6 N         143.9481  140.8713  161.7876 N.3     1  UNL1       -0.2699
      7 C         142.8073  143.1987  161.6089 C.3     1  UNL1        0.0432
      8 C         141.4126  145.0969  159.3501 C.3     1  UNL1        0.0517
      9 C         140.7787  144.6378  160.6298 C.2     1  UNL1        0.0551
     10 N         139.3924  144.9707  161.0958 N.2     1  UNL1       -0.2503
     11 C         139.1766  144.3040  162.4220 C.2     1  UNL1        0.0770
     12 C         138.0010  144.2789  163.3534 C.2     1  UNL1        0.0184
     13 C         138.0785  143.5089  164.6383 C.2     1  UNL1       -0.0027
     14 C         139.3315  142.7640  164.9919 C.2     1  UNL1       -0.0213
     15 C         140.5070  142.7890  164.0606 C.3     1  UNL1        0.0535
     16 C         140.4296  143.5590  162.7756 C.2     1  UNL1       -0.0030
     17 C         141.4198  143.7654  161.6679 C.2     1  UNL1       -0.0095
     18 C         144.6420  141.3079  163.0437 C.3     1  UNL1        0.0991
     19 C         143.9037  141.3014  164.3494 C.ar    1  UNL1       -0.0061
     20 C         143.9986  142.4814  165.2707 C.ar    1  UNL1       -0.0029
     21 C         143.2603  142.4748  166.5764 C.ar    1  UNL1       -0.0003
     22 C         142.4270  141.2883  166.9608 C.ar    1  UNL1        0.0001
     23 C         142.3320  140.1084  166.0395 C.ar    1  UNL1       -0.0003
     24 C         143.0703  140.1149  164.7338 C.ar    1  UNL1       -0.0029
     25 C         141.6886  141.2817  168.2665 C.2     1  UNL1        0.0047
     26 C         140.7225  142.3833  168.5872 C.2     1  UNL1        0.0598
     27 C         139.9842  142.3768  169.8929 C.2     1  UNL1        0.2679
     28 O         139.6598  141.0754  170.5646 O.2     1  UNL1       -0.2681
     29 N         139.5701  143.6717  170.5270 N.am    1  UNL1       -0.1934
     30 O         138.8318  143.6651  171.8327 O.3     1  UNL1       -0.2949
     31 H         139.7829  144.5258  170.0862 H       1  UNL1        0.1825
     32 H         138.7042  142.7498  172.1274 H       1  UNL1        0.2414
@<TRIPOS>BOND
     1     8     9    1
     2     9    10    2
     3    10    11    1
     4    11    12    2
     5    12    13    1
     6    13    14    2
     7    14    15    1
     8    15    16    1
     9    16    17    2
    10    17     7    1
    11     7     1    1
    12     1     2    1
    13     2     3    1
    14     3     4    1
    15     4     5    1
    16     5     6    1
    17     6    18    1
    18    18    19    1
    19    19    20   ar
    20    20    21   ar
    21    21    22   ar
    22    22    25    1
    23    25    26    2
    24    26    27    1
    25    27    28    2
    26    27    29   am
    27    29    30    1
    28    22    23   ar
    29    23    24   ar
    30    17     9    1
    31     6     1    1
    32    24    19   ar
    33    16    11    1
    34    29    31    1
    35    30    32    1
