@<TRIPOS>MOLECULE
*****
 33 37 0 0 0
SMALL
GASTEIGER

@<TRIPOS>ATOM
      1 C         143.0429  140.9145  164.4178 C.ar    1  UNL1        0.3283
      2 N         143.0490  140.9314  165.9177 N.ar    1  UNL1       -0.1750
      3 C         142.1378  141.8627  166.6610 C.ar    1  UNL1        0.1668
      4 N         141.2204  142.7770  165.9044 N.ar    1  UNL1       -0.1946
      5 C         141.2143  142.7601  164.4045 C.ar    1  UNL1        0.2255
      6 N         142.1255  141.8288  163.6612 N.ar    1  UNL1       -0.1607
      7 C         142.1440  141.8796  168.1609 C.2     1  UNL1        0.0334
      8 C         143.2905  142.5044  168.8992 C.2     1  UNL1        0.0502
      9 C         143.2967  142.5213  170.3990 C.2     1  UNL1        0.2355
     10 N         142.1563  141.9135  171.1607 N.2     1  UNL1       -0.0341
     11 C         141.0098  141.2887  170.4224 C.2     1  UNL1        0.3594
     12 N         139.7559  140.6172  170.8988 N.2     1  UNL1       -0.0344
     13 C         138.9748  140.1852  169.6932 C.2     1  UNL1        0.2320
     14 C         139.7459  140.5898  168.4718 C.2     1  UNL1        0.0409
     15 C         141.0036  141.2718  168.9225 C.3     1  UNL1        0.1630
     16 N         140.2969  143.6744  163.6479 N.pl3   1  UNL1       -0.2729
     17 C         140.8650  144.7803  162.8086 C.3     1  UNL1        0.1257
     18 C         139.9475  145.6946  162.0520 C.3     1  UNL1        0.1637
     19 O         138.4621  145.5030  162.1347 O.3     1  UNL1       -0.3501
     20 C         137.8941  144.3971  162.9739 C.3     1  UNL1        0.1637
     21 C         138.8115  143.4828  163.7305 C.3     1  UNL1        0.1257
     22 O         143.9541  139.9833  163.6745 O.3     1  UNL1       -0.4222
     23 C         142.7568  138.4161  159.6297 C.ar    1  UNL1        0.0538
     24 C         143.6285  139.6322  159.7349 C.ar    1  UNL1        0.0076
     25 C         144.0277  140.1547  161.0832 C.ar    1  UNL1        0.0378
     26 C         143.5550  139.4609  162.3262 C.ar    1  UNL1        0.1487
     27 C         142.6833  138.2448  162.2210 C.ar    1  UNL1        0.0378
     28 C         142.2841  137.7224  160.8729 C.ar    1  UNL1        0.0076
     29 C         140.6296  137.7459  156.3471 C.3     1  UNL1        0.1152
     30 N         141.0287  138.2682  157.6953 N.am    1  UNL1       -0.2726
     31 C         140.0988  139.1651  158.4575 C.3     1  UNL1        0.1152
     32 C         142.3577  137.8938  158.2815 C.2     1  UNL1        0.2491
     33 O         143.2876  136.9969  157.5193 O.2     1  UNL1       -0.2699
@<TRIPOS>BOND
     1    29    30    1
     2    30    31    1
     3    30    32   am
     4    32    33    2
     5    32    23    1
     6    23    24   ar
     7    24    25   ar
     8    25    26   ar
     9    26    22    1
    10    22     1    1
    11     1     2   ar
    12     2     3   ar
    13     3     7    1
    14     7     8    2
    15     8     9    1
    16     9    10    2
    17    10    11    1
    18    11    12    2
    19    12    13    1
    20    13    14    2
    21    14    15    1
    22     3     4   ar
    23     4     5   ar
    24     5    16    1
    25    16    17    1
    26    17    18    1
    27    18    19    1
    28    19    20    1
    29    20    21    1
    30     5     6   ar
    31    26    27   ar
    32    27    28   ar
    33    28    23   ar
    34     6     1   ar
    35    15     7    1
    36    21    16    1
    37    15    11    1
@<TRIPOS>MOLECULE
*****
 33 37 0 0 0
SMALL
GASTEIGER

@<TRIPOS>ATOM
      1 C         139.7343  138.7501  160.4137 C.ar    1  UNL1        0.3283
      2 N         140.8588  139.5260  161.0326 N.ar    1  UNL1       -0.1750
      3 C         142.1153  139.7772  160.2525 C.ar    1  UNL1        0.1668
      4 N         142.2471  139.2524  158.8536 N.ar    1  UNL1       -0.1946
      5 C         141.1224  138.4763  158.2347 C.ar    1  UNL1        0.2255
      6 N         139.8661  138.2251  159.0147 N.ar    1  UNL1       -0.1607
      7 C         143.2398  140.5533  160.8715 C.2     1  UNL1        0.0334
      8 C         143.8054  141.7484  160.1631 C.2     1  UNL1        0.0502
      9 C         144.9299  142.5244  160.7820 C.2     1  UNL1        0.2355
     10 N         145.4890  142.1053  162.1095 N.2     1  UNL1       -0.0341
     11 C         144.9234  140.9102  162.8179 C.2     1  UNL1        0.3594
     12 N         145.2673  140.2638  164.1270 N.2     1  UNL1       -0.0344
     13 C         144.3553  139.0882  164.3170 C.2     1  UNL1        0.2320
     14 C         143.4477  139.0081  163.1255 C.2     1  UNL1        0.0409
     15 C         143.7988  140.1342  162.1989 C.3     1  UNL1        0.1630
     16 N         141.2542  137.9514  156.8357 N.pl3   1  UNL1       -0.2729
     17 C         140.1138  137.2115  156.2017 C.3     1  UNL1        0.1257
     18 C         140.2456  136.6866  154.8026 C.3     1  UNL1        0.1637
     19 O         141.5179  136.9017  154.0378 O.3     1  UNL1       -0.3501
     20 C         142.6583  137.6416  154.6717 C.3     1  UNL1        0.1637
     21 C         142.5265  138.1665  156.0707 C.3     1  UNL1        0.1257
     22 O         138.4779  138.4989  161.1937 O.3     1  UNL1       -0.4222
     23 C         138.4649  139.0107  165.6645 C.ar    1  UNL1        0.0538
     24 C         138.0067  140.1320  164.7799 C.ar    1  UNL1        0.0076
     25 C         138.0110  139.9615  163.2896 C.ar    1  UNL1        0.0378
     26 C         138.4736  138.6695  162.6839 C.ar    1  UNL1        0.1487
     27 C         138.9318  137.5482  163.5686 C.ar    1  UNL1        0.0378
     28 C         138.9275  137.7187  165.0588 C.ar    1  UNL1        0.0076
     29 C         139.5376  140.1495  169.3117 C.3     1  UNL1        0.1152
     30 N         139.5419  139.9789  167.8215 N.am    1  UNL1       -0.2726
     31 C         140.6275  140.6059  166.9980 C.3     1  UNL1        0.1152
     32 C         138.4606  139.1813  167.1547 C.2     1  UNL1        0.2491
     33 O         137.3749  138.5543  167.9782 O.2     1  UNL1       -0.2699
@<TRIPOS>BOND
     1    29    30    1
     2    30    31    1
     3    30    32   am
     4    32    33    2
     5    32    23    1
     6    23    24   ar
     7    24    25   ar
     8    25    26   ar
     9    26    22    1
    10    22     1    1
    11     1     2   ar
    12     2     3   ar
    13     3     7    1
    14     7     8    2
    15     8     9    1
    16     9    10    2
    17    10    11    1
    18    11    12    2
    19    12    13    1
    20    13    14    2
    21    14    15    1
    22     3     4   ar
    23     4     5   ar
    24     5    16    1
    25    16    17    1
    26    17    18    1
    27    18    19    1
    28    19    20    1
    29    20    21    1
    30     5     6   ar
    31    26    27   ar
    32    27    28   ar
    33    28    23   ar
    34     6     1   ar
    35    15     7    1
    36    21    16    1
    37    15    11    1
@<TRIPOS>MOLECULE
*****
 33 37 0 0 0
SMALL
GASTEIGER

@<TRIPOS>ATOM
      1 C         142.0151  140.1335  164.6631 C.ar    1  UNL1        0.3283
      2 N         141.6991  140.0285  166.1256 N.ar    1  UNL1       -0.1750
      3 C         140.8223  141.0554  166.7791 C.ar    1  UNL1        0.1668
      4 N         140.2617  142.1872  165.9700 N.ar    1  UNL1       -0.1946
      5 C         140.5777  142.2921  164.5074 C.ar    1  UNL1        0.2255
      6 N         141.4544  141.2653  163.8539 N.ar    1  UNL1       -0.1607
      7 C         140.5063  140.9504  168.2416 C.2     1  UNL1        0.0334
      8 C         139.3452  140.1190  168.7003 C.2     1  UNL1        0.0502
      9 C         139.0292  140.0140  170.1628 C.2     1  UNL1        0.2355
     10 N         139.8744  140.7405  171.1668 N.2     1  UNL1       -0.0341
     11 C         141.0355  141.5719  170.7082 C.2     1  UNL1        0.3594
     12 N         142.0396  142.3949  171.4596 N.2     1  UNL1       -0.0344
     13 C         142.9761  143.0085  170.4614 C.2     1  UNL1        0.2320
     14 C         142.5509  142.5648  169.0931 C.2     1  UNL1        0.0409
     15 C         141.3515  141.6769  169.2456 C.3     1  UNL1        0.1630
     16 N         140.0170  143.4239  163.6982 N.pl3   1  UNL1       -0.2729
     17 C         138.5323  143.5714  163.5429 C.3     1  UNL1        0.1257
     18 C         137.9717  144.7032  162.7337 C.3     1  UNL1        0.1637
     19 O         138.8957  145.6875  162.0800 O.3     1  UNL1       -0.3501
     20 C         140.3803  145.5401  162.2354 C.3     1  UNL1        0.1637
     21 C         140.9410  144.4083  163.0445 C.3     1  UNL1        0.1257
     22 O         142.8917  139.1066  164.0096 O.3     1  UNL1       -0.4222
     23 C         142.7642  138.5516  159.5457 C.ar    1  UNL1        0.0538
     24 C         141.6369  138.0468  160.3968 C.ar    1  UNL1        0.0076
     25 C         141.6794  138.2318  161.8848 C.ar    1  UNL1        0.0378
     26 C         142.8492  138.9216  162.5216 C.ar    1  UNL1        0.1487
     27 C         143.9765  139.4265  161.6706 C.ar    1  UNL1        0.0378
     28 C         143.9340  139.2415  160.1827 C.ar    1  UNL1        0.0076
     29 C         142.0966  139.2536  155.6972 C.3     1  UNL1        0.1152
     30 N         142.1391  139.4386  157.1851 N.am    1  UNL1       -0.2726
     31 C         141.5991  140.6955  157.8004 C.3     1  UNL1        0.1152
     32 C         142.7216  138.3667  158.0579 C.2     1  UNL1        0.2491
     33 O         143.2616  137.1097  157.4426 O.2     1  UNL1       -0.2699
@<TRIPOS>BOND
     1    29    30    1
     2    30    31    1
     3    30    32   am
     4    32    33    2
     5    32    23    1
     6    23    24   ar
     7    24    25   ar
     8    25    26   ar
     9    26    22    1
    10    22     1    1
    11     1     2   ar
    12     2     3   ar
    13     3     7    1
    14     7     8    2
    15     8     9    1
    16     9    10    2
    17    10    11    1
    18    11    12    2
    19    12    13    1
    20    13    14    2
    21    14    15    1
    22     3     4   ar
    23     4     5   ar
    24     5    16    1
    25    16    17    1
    26    17    18    1
    27    18    19    1
    28    19    20    1
    29    20    21    1
    30     5     6   ar
    31    26    27   ar
    32    27    28   ar
    33    28    23   ar
    34     6     1   ar
    35    15     7    1
    36    21    16    1
    37    15    11    1
@<TRIPOS>MOLECULE
*****
 33 37 0 0 0
SMALL
GASTEIGER

@<TRIPOS>ATOM
      1 C         140.4461  143.3892  165.0885 C.ar    1  UNL1        0.3283
      2 N         140.5007  142.1603  164.2303 N.ar    1  UNL1       -0.1750
      3 C         140.5163  140.8017  164.8660 C.ar    1  UNL1        0.1668
      4 N         140.4774  140.6721  166.3598 N.ar    1  UNL1       -0.1946
      5 C         140.4229  141.9011  167.2181 C.ar    1  UNL1        0.2255
      6 N         140.4072  143.2597  166.5825 N.ar    1  UNL1       -0.1607
      7 C         140.5708  139.5727  164.0077 C.2     1  UNL1        0.0334
      8 C         139.3488  138.7187  163.8421 C.2     1  UNL1        0.0502
      9 C         139.4033  137.4898  162.9838 C.2     1  UNL1        0.2355
     10 N         140.6799  137.1148  162.2911 N.2     1  UNL1       -0.0341
     11 C         141.9019  137.9687  162.4567 C.2     1  UNL1        0.3594
     12 N         143.2907  137.8519  161.9020 N.2     1  UNL1       -0.0344
     13 C         144.0944  139.0087  162.4175 C.2     1  UNL1        0.2320
     14 C         143.2025  139.8405  163.2908 C.2     1  UNL1        0.0409
     15 C         141.8474  139.1977  163.3150 C.3     1  UNL1        0.1630
     16 N         140.3840  141.7715  168.7120 N.pl3   1  UNL1       -0.2729
     17 C         140.4903  140.4182  169.3504 C.3     1  UNL1        0.1257
     18 C         140.4514  140.2887  170.8444 C.3     1  UNL1        0.1637
     19 O         140.3063  141.5123  171.6997 O.3     1  UNL1       -0.3501
     20 C         140.2000  142.8655  171.0613 C.3     1  UNL1        0.1637
     21 C         140.2389  142.9951  169.5674 C.3     1  UNL1        0.1257
     22 O         140.4305  144.7478  164.4530 O.3     1  UNL1       -0.4222
     23 C         141.1599  145.1727  160.0328 C.ar    1  UNL1        0.0538
     24 C         142.0721  144.3211  160.8651 C.ar    1  UNL1        0.0076
     25 C         141.8290  144.1794  162.3385 C.ar    1  UNL1        0.0378
     26 C         140.6737  144.8894  162.9796 C.ar    1  UNL1        0.1487
     27 C         139.7615  145.7410  162.1473 C.ar    1  UNL1        0.0378
     28 C         140.0045  145.8827  160.6740 C.ar    1  UNL1        0.0076
     29 C         140.8345  144.6549  156.1117 C.3     1  UNL1        0.1152
     30 N         140.5914  144.5133  157.5850 N.am    1  UNL1       -0.2726
     31 C         139.5366  143.5707  158.0839 C.3     1  UNL1        0.1152
     32 C         141.4031  145.3143  158.5595 C.2     1  UNL1        0.2491
     33 O         142.4579  146.2569  158.0606 O.2     1  UNL1       -0.2699
@<TRIPOS>BOND
     1    29    30    1
     2    30    31    1
     3    30    32   am
     4    32    33    2
     5    32    23    1
     6    23    24   ar
     7    24    25   ar
     8    25    26   ar
     9    26    22    1
    10    22     1    1
    11     1     2   ar
    12     2     3   ar
    13     3     7    1
    14     7     8    2
    15     8     9    1
    16     9    10    2
    17    10    11    1
    18    11    12    2
    19    12    13    1
    20    13    14    2
    21    14    15    1
    22     3     4   ar
    23     4     5   ar
    24     5    16    1
    25    16    17    1
    26    17    18    1
    27    18    19    1
    28    19    20    1
    29    20    21    1
    30     5     6   ar
    31    26    27   ar
    32    27    28   ar
    33    28    23   ar
    34     6     1   ar
    35    15     7    1
    36    21    16    1
    37    15    11    1
@<TRIPOS>MOLECULE
*****
 33 37 0 0 0
SMALL
GASTEIGER

@<TRIPOS>ATOM
      1 C         141.9541  139.5362  165.2143 C.ar    1  UNL1        0.3283
      2 N         141.7800  140.7890  164.4081 N.ar    1  UNL1       -0.1750
      3 C         141.4133  142.0744  165.0892 C.ar    1  UNL1        0.1668
      4 N         141.2209  142.1067  166.5764 N.ar    1  UNL1       -0.1946
      5 C         141.3950  140.8538  167.3826 C.ar    1  UNL1        0.2255
      6 N         141.7616  139.5685  166.7016 N.ar    1  UNL1       -0.1607
      7 C         141.2392  143.3272  164.2829 C.2     1  UNL1        0.0334
      8 C         142.4055  144.2438  164.0601 C.2     1  UNL1        0.0502
      9 C         142.2314  145.4966  163.2539 C.2     1  UNL1        0.2355
     10 N         140.8910  145.8329  162.6704 N.2     1  UNL1       -0.0341
     11 C         139.7248  144.9163  162.8933 C.2     1  UNL1        0.3594
     12 N         138.2946  144.9849  162.4461 N.2     1  UNL1       -0.0344
     13 C         137.5849  143.7744  162.9760 C.2     1  UNL1        0.2320
     14 C         138.5763  142.9577  163.7507 C.2     1  UNL1        0.0409
     15 C         139.8989  143.6635  163.6995 C.3     1  UNL1        0.1630
     16 N         141.2025  140.8862  168.8698 N.pl3   1  UNL1       -0.2729
     17 C         141.9900  141.8499  169.7072 C.3     1  UNL1        0.1257
     18 C         141.7975  141.8822  171.1945 C.3     1  UNL1        0.1637
     19 O         140.8175  140.9509  171.8443 O.3     1  UNL1       -0.3501
     20 C         140.0300  139.9872  171.0069 C.3     1  UNL1        0.1637
     21 C         140.2225  139.9549  169.5197 C.3     1  UNL1        0.1257
     22 O         142.3206  138.2510  164.5333 O.3     1  UNL1       -0.4222
     23 C         142.6223  138.0885  160.0463 C.ar    1  UNL1        0.0538
     24 C         143.8612  138.2529  160.8758 C.ar    1  UNL1        0.0076
     25 C         143.7607  138.3071  162.3715 C.ar    1  UNL1        0.0378
     26 C         142.4212  138.1968  163.0376 C.ar    1  UNL1        0.1487
     27 C         141.1823  138.0325  162.2081 C.ar    1  UNL1        0.0378
     28 C         141.2828  137.9783  160.7125 C.ar    1  UNL1        0.0076
     29 C         142.7605  139.2461  156.2529 C.3     1  UNL1        0.1152
     30 N         142.6599  139.3002  157.7484 N.am    1  UNL1       -0.2726
     31 C         142.4965  140.6202  158.4418 C.3     1  UNL1        0.1152
     32 C         142.7228  138.0343  158.5507 C.2     1  UNL1        0.2491
     33 O         142.8863  136.7143  157.8573 O.2     1  UNL1       -0.2699
@<TRIPOS>BOND
     1    29    30    1
     2    30    31    1
     3    30    32   am
     4    32    33    2
     5    32    23    1
     6    23    24   ar
     7    24    25   ar
     8    25    26   ar
     9    26    22    1
    10    22     1    1
    11     1     2   ar
    12     2     3   ar
    13     3     7    1
    14     7     8    2
    15     8     9    1
    16     9    10    2
    17    10    11    1
    18    11    12    2
    19    12    13    1
    20    13    14    2
    21    14    15    1
    22     3     4   ar
    23     4     5   ar
    24     5    16    1
    25    16    17    1
    26    17    18    1
    27    18    19    1
    28    19    20    1
    29    20    21    1
    30     5     6   ar
    31    26    27   ar
    32    27    28   ar
    33    28    23   ar
    34     6     1   ar
    35    15     7    1
    36    21    16    1
    37    15    11    1
@<TRIPOS>MOLECULE
*****
 33 37 0 0 0
SMALL
GASTEIGER

@<TRIPOS>ATOM
      1 C         139.8436  138.6408  160.4128 C.ar    1  UNL1        0.3283
      2 N         139.9775  138.2231  158.9785 N.ar    1  UNL1       -0.1750
      3 C         141.2209  138.5629  158.2113 C.ar    1  UNL1        0.1668
      4 N         142.3303  139.3206  158.8785 N.ar    1  UNL1       -0.1946
      5 C         142.1963  139.7384  160.3129 C.ar    1  UNL1        0.2255
      6 N         140.9530  139.3985  161.0801 N.ar    1  UNL1       -0.1607
      7 C         141.3548  138.1451  156.7769 C.2     1  UNL1        0.0334
      8 C         140.6619  138.9266  155.7002 C.2     1  UNL1        0.0502
      9 C         140.7958  138.5089  154.2659 C.2     1  UNL1        0.2355
     10 N         141.6226  137.3095  153.9080 N.2     1  UNL1       -0.0341
     11 C         142.3155  136.5280  154.9846 C.2     1  UNL1        0.3594
     12 N         143.1914  135.3113  154.9360 N.2     1  UNL1       -0.0344
     13 C         143.5988  134.9771  156.3404 C.2     1  UNL1        0.2320
     14 C         142.9748  135.9873  157.2570 C.2     1  UNL1        0.0409
     15 C         142.1816  136.9458  156.4191 C.3     1  UNL1        0.1630
     16 N         143.3058  140.4960  160.9801 N.pl3   1  UNL1       -0.2729
     17 C         143.8808  139.9998  162.2737 C.3     1  UNL1        0.1257
     18 C         144.9903  140.7575  162.9408 C.3     1  UNL1        0.1637
     19 O         145.5246  142.0113  162.3145 O.3     1  UNL1       -0.3501
     20 C         144.9496  142.5075  161.0210 C.3     1  UNL1        0.1637
     21 C         143.8402  141.7499  160.3538 C.3     1  UNL1        0.1257
     22 O         138.6003  138.3010  161.1801 O.3     1  UNL1       -0.4222
     23 C         138.4638  138.9252  165.6345 C.ar    1  UNL1        0.0538
     24 C         138.9191  137.6101  165.0751 C.ar    1  UNL1        0.0076
     25 C         138.9646  137.4019  163.5902 C.ar    1  UNL1        0.0378
     26 C         138.5548  138.5090  162.6649 C.ar    1  UNL1        0.1487
     27 C         138.0995  139.8242  163.2243 C.ar    1  UNL1        0.0378
     28 C         138.0540  140.0324  164.7091 C.ar    1  UNL1        0.0076
     29 C         139.3935  140.2156  169.2704 C.3     1  UNL1        0.1152
     30 N         139.4390  140.0075  167.7857 N.am    1  UNL1       -0.2726
     31 C         140.5050  140.6737  166.9673 C.3     1  UNL1        0.1152
     32 C         138.4183  139.1333  167.1192 C.2     1  UNL1        0.2491
     33 O         137.3523  138.4671  167.9376 O.2     1  UNL1       -0.2699
@<TRIPOS>BOND
     1    29    30    1
     2    30    31    1
     3    30    32   am
     4    32    33    2
     5    32    23    1
     6    23    24   ar
     7    24    25   ar
     8    25    26   ar
     9    26    22    1
    10    22     1    1
    11     1     2   ar
    12     2     3   ar
    13     3     7    1
    14     7     8    2
    15     8     9    1
    16     9    10    2
    17    10    11    1
    18    11    12    2
    19    12    13    1
    20    13    14    2
    21    14    15    1
    22     3     4   ar
    23     4     5   ar
    24     5    16    1
    25    16    17    1
    26    17    18    1
    27    18    19    1
    28    19    20    1
    29    20    21    1
    30     5     6   ar
    31    26    27   ar
    32    27    28   ar
    33    28    23   ar
    34     6     1   ar
    35    15     7    1
    36    21    16    1
    37    15    11    1
@<TRIPOS>MOLECULE
*****
 33 37 0 0 0
SMALL
GASTEIGER

@<TRIPOS>ATOM
      1 C         138.5499  139.5883  160.1762 C.ar    1  UNL1        0.3283
      2 N         139.9615  140.0811  160.2958 N.ar    1  UNL1       -0.1750
      3 C         140.4895  141.0889  159.3181 C.ar    1  UNL1        0.1668
      4 N         139.6058  141.6039  158.2209 N.ar    1  UNL1       -0.1946
      5 C         138.1941  141.1110  158.1014 C.ar    1  UNL1        0.2255
      6 N         137.6661  140.1033  159.0790 N.ar    1  UNL1       -0.1607
      7 C         141.9012  141.5817  159.4377 C.2     1  UNL1        0.0334
      8 C         142.9472  141.1014  158.4760 C.2     1  UNL1        0.0502
      9 C         144.3589  141.5941  158.5956 C.2     1  UNL1        0.2355
     10 N         144.7246  142.5673  159.6769 N.2     1  UNL1       -0.0341
     11 C         143.6785  143.0476  160.6387 C.2     1  UNL1        0.3594
     12 N         143.7412  143.9979  161.7975 N.2     1  UNL1       -0.0344
     13 C         142.3682  144.0925  162.3941 C.2     1  UNL1        0.2320
     14 C         141.4570  143.2006  161.6040 C.2     1  UNL1        0.0409
     15 C         142.2668  142.5548  160.5191 C.3     1  UNL1        0.1630
     16 N         137.3103  141.6259  157.0042 N.pl3   1  UNL1       -0.2729
     17 C         136.1429  140.8088  156.5356 C.3     1  UNL1        0.1257
     18 C         135.2592  141.3238  155.4383 C.3     1  UNL1        0.1637
     19 O         135.5429  142.6558  154.8098 O.3     1  UNL1       -0.3501
     20 C         136.7102  143.4730  155.2784 C.3     1  UNL1        0.1637
     21 C         137.5939  142.9580  156.3756 C.3     1  UNL1        0.1257
     22 O         138.0219  138.5806  161.1538 O.3     1  UNL1       -0.4222
     23 C         138.7189  139.1444  165.5637 C.ar    1  UNL1        0.0538
     24 C         139.0438  137.8316  164.9148 C.ar    1  UNL1        0.0076
     25 C         138.8115  137.6436  163.4448 C.ar    1  UNL1        0.0378
     26 C         138.2542  138.7685  162.6238 C.ar    1  UNL1        0.1487
     27 C         137.9293  140.0813  163.2727 C.ar    1  UNL1        0.0378
     28 C         138.1616  140.2693  164.7425 C.ar    1  UNL1        0.0076
     29 C         140.4600  140.1416  168.9876 C.3     1  UNL1        0.1152
     30 N         140.2277  139.9537  167.5178 N.am    1  UNL1       -0.2726
     31 C         141.2719  140.3871  166.5320 C.3     1  UNL1        0.1152
     32 C         138.9512  139.3323  167.0335 C.2     1  UNL1        0.2491
     33 O         137.9070  138.8989  168.0193 O.2     1  UNL1       -0.2699
@<TRIPOS>BOND
     1    29    30    1
     2    30    31    1
     3    30    32   am
     4    32    33    2
     5    32    23    1
     6    23    24   ar
     7    24    25   ar
     8    25    26   ar
     9    26    22    1
    10    22     1    1
    11     1     2   ar
    12     2     3   ar
    13     3     7    1
    14     7     8    2
    15     8     9    1
    16     9    10    2
    17    10    11    1
    18    11    12    2
    19    12    13    1
    20    13    14    2
    21    14    15    1
    22     3     4   ar
    23     4     5   ar
    24     5    16    1
    25    16    17    1
    26    17    18    1
    27    18    19    1
    28    19    20    1
    29    20    21    1
    30     5     6   ar
    31    26    27   ar
    32    27    28   ar
    33    28    23   ar
    34     6     1   ar
    35    15     7    1
    36    21    16    1
    37    15    11    1
@<TRIPOS>MOLECULE
*****
 33 37 0 0 0
SMALL
GASTEIGER

@<TRIPOS>ATOM
      1 C         140.5681  138.6447  162.5280 C.ar    1  UNL1        0.3283
      2 N         140.6418  140.1397  162.6243 N.ar    1  UNL1       -0.1750
      3 C         140.8821  140.9598  161.3915 C.ar    1  UNL1        0.1668
      4 N         141.0487  140.2848  160.0623 N.ar    1  UNL1       -0.1946
      5 C         140.9749  138.7897  159.9661 C.ar    1  UNL1        0.2255
      6 N         140.7346  137.9696  161.1988 N.ar    1  UNL1       -0.1607
      7 C         140.9559  142.4549  161.4879 C.2     1  UNL1        0.0334
      8 C         139.7780  143.2915  161.0846 C.2     1  UNL1        0.0502
      9 C         139.8517  144.7865  161.1809 C.2     1  UNL1        0.2355
     10 N         141.1034  145.4451  161.6807 N.2     1  UNL1       -0.0341
     11 C         142.2813  144.6085  162.0840 C.2     1  UNL1        0.3594
     12 N         143.6381  144.9728  162.6096 N.2     1  UNL1       -0.0344
     13 C         144.4029  143.7029  162.8381 C.2     1  UNL1        0.2320
     14 C         143.5188  142.5537  162.4537 C.2     1  UNL1        0.0409
     15 C         142.2075  143.1134  161.9876 C.3     1  UNL1        0.1630
     16 N         141.1414  138.1147  158.6369 N.pl3   1  UNL1       -0.2729
     17 C         142.4864  137.5952  158.2228 C.3     1  UNL1        0.1257
     18 C         142.6529  136.9202  156.8936 C.3     1  UNL1        0.1637
     19 O         141.4745  136.7647  155.9786 O.3     1  UNL1       -0.3501
     20 C         140.1297  137.2842  156.3927 C.3     1  UNL1        0.1637
     21 C         139.9631  137.9592  157.7218 C.3     1  UNL1        0.1257
     22 O         140.3278  137.8246  163.7607 O.3     1  UNL1       -0.4222
     23 C         140.0636  139.8295  167.7808 C.ar    1  UNL1        0.0538
     24 C         141.4042  139.5523  167.1676 C.ar    1  UNL1        0.0076
     25 C         141.4923  138.8840  165.8275 C.ar    1  UNL1        0.0378
     26 C         140.2398  138.4929  165.1007 C.ar    1  UNL1        0.1487
     27 C         138.8992  138.7701  165.7140 C.ar    1  UNL1        0.0378
     28 C         138.8111  139.4383  167.0540 C.ar    1  UNL1        0.0076
     29 C         140.0641  142.6515  170.5711 C.3     1  UNL1        0.1152
     30 N         140.1522  141.9833  169.2311 N.am    1  UNL1       -0.2726
     31 C         140.4168  142.8004  168.0014 C.3     1  UNL1        0.1152
     32 C         139.9756  140.4978  169.1208 C.2     1  UNL1        0.2491
     33 O         139.7109  139.6806  170.3505 O.2     1  UNL1       -0.2699
@<TRIPOS>BOND
     1    29    30    1
     2    30    31    1
     3    30    32   am
     4    32    33    2
     5    32    23    1
     6    23    24   ar
     7    24    25   ar
     8    25    26   ar
     9    26    22    1
    10    22     1    1
    11     1     2   ar
    12     2     3   ar
    13     3     7    1
    14     7     8    2
    15     8     9    1
    16     9    10    2
    17    10    11    1
    18    11    12    2
    19    12    13    1
    20    13    14    2
    21    14    15    1
    22     3     4   ar
    23     4     5   ar
    24     5    16    1
    25    16    17    1
    26    17    18    1
    27    18    19    1
    28    19    20    1
    29    20    21    1
    30     5     6   ar
    31    26    27   ar
    32    27    28   ar
    33    28    23   ar
    34     6     1   ar
    35    15     7    1
    36    21    16    1
    37    15    11    1
@<TRIPOS>MOLECULE
*****
 33 37 0 0 0
SMALL
GASTEIGER

@<TRIPOS>ATOM
      1 C         141.4941  138.8676  162.5364 C.ar    1  UNL1        0.3283
      2 N         141.0674  140.3046  162.5867 N.ar    1  UNL1       -0.1750
      3 C         140.7269  141.0308  161.3190 C.ar    1  UNL1        0.1668
      4 N         140.8132  140.3197  160.0010 N.ar    1  UNL1       -0.1946
      5 C         141.2400  138.8826  159.9508 C.ar    1  UNL1        0.2255
      6 N         141.5804  138.1565  161.2184 N.ar    1  UNL1       -0.1607
      7 C         140.3002  142.4679  161.3693 C.2     1  UNL1        0.0334
      8 C         140.8497  143.4487  160.3762 C.2     1  UNL1        0.0502
      9 C         140.4230  144.8857  160.4265 C.2     1  UNL1        0.2355
     10 N         139.4467  145.3422  161.4699 N.2     1  UNL1       -0.0341
     11 C         138.8972  144.3614  162.4630 C.2     1  UNL1        0.3594
     12 N         137.9275  144.5177  163.5967 N.2     1  UNL1       -0.0344
     13 C         137.7550  143.1771  164.2471 C.2     1  UNL1        0.2320
     14 C         138.6180  142.1923  163.5153 C.2     1  UNL1        0.0409
     15 C         139.3239  142.9243  162.4127 C.3     1  UNL1        0.1630
     16 N         141.3263  138.1715  158.6329 N.pl3   1  UNL1       -0.2729
     17 C         140.1098  138.0539  157.7630 C.3     1  UNL1        0.1257
     18 C         140.1962  137.3428  156.4450 C.3     1  UNL1        0.1637
     19 O         141.4989  136.7495  155.9970 O.3     1  UNL1       -0.3501
     20 C         142.7153  136.8671  156.8667 C.3     1  UNL1        0.1637
     21 C         142.6290  137.5782  158.1847 C.3     1  UNL1        0.1257
     22 O         141.8345  138.1415  163.8040 O.3     1  UNL1       -0.4222
     23 C         140.7142  139.9169  167.7843 C.ar    1  UNL1        0.0538
     24 C         142.1573  139.6889  167.4442 C.ar    1  UNL1        0.0076
     25 C         142.5308  139.0971  166.1174 C.ar    1  UNL1        0.0378
     26 C         141.4611  138.7333  165.1308 C.ar    1  UNL1        0.1487
     27 C         140.0181  138.9613  165.4709 C.ar    1  UNL1        0.0378
     28 C         139.6446  139.5531  166.7976 C.ar    1  UNL1        0.0076
     29 C         139.8782  142.5894  170.5965 C.3     1  UNL1        0.1152
     30 N         140.2517  141.9977  169.2698 N.am    1  UNL1       -0.2726
     31 C         140.5359  142.8947  168.1017 C.3     1  UNL1        0.1152
     32 C         140.3408  140.5087  169.1110 C.2     1  UNL1        0.2491
     33 O         140.0565  139.6116  170.2791 O.2     1  UNL1       -0.2699
@<TRIPOS>BOND
     1    29    30    1
     2    30    31    1
     3    30    32   am
     4    32    33    2
     5    32    23    1
     6    23    24   ar
     7    24    25   ar
     8    25    26   ar
     9    26    22    1
    10    22     1    1
    11     1     2   ar
    12     2     3   ar
    13     3     7    1
    14     7     8    2
    15     8     9    1
    16     9    10    2
    17    10    11    1
    18    11    12    2
    19    12    13    1
    20    13    14    2
    21    14    15    1
    22     3     4   ar
    23     4     5   ar
    24     5    16    1
    25    16    17    1
    26    17    18    1
    27    18    19    1
    28    19    20    1
    29    20    21    1
    30     5     6   ar
    31    26    27   ar
    32    27    28   ar
    33    28    23   ar
    34     6     1   ar
    35    15     7    1
    36    21    16    1
    37    15    11    1
