@<TRIPOS>MOLECULE
*****
 34 37 0 0 0
SMALL
GASTEIGER

@<TRIPOS>ATOM
      1 N         137.1843  140.6712  162.3785 N.3     1  UNL1       -0.2935
      2 H         136.9324  141.2048  161.5465 H       1  UNL1        0.1236
      3 C         137.4501  141.6673  163.4679 C.3     1  UNL1        0.0956
      4 C         139.9065  140.4842  167.0480 C.ar    1  UNL1        0.0001
      5 C         138.8980  139.5292  166.4815 C.ar    1  UNL1       -0.0003
      6 C         138.0792  139.9235  165.2882 C.ar    1  UNL1       -0.0029
      7 C         138.2688  141.2729  164.6613 C.ar    1  UNL1       -0.0064
      8 C         139.2774  142.2280  165.2277 C.ar    1  UNL1       -0.0029
      9 C         140.0961  141.8337  166.4211 C.ar    1  UNL1       -0.0003
     10 C         141.1097  141.1207  169.2609 C.2     1  UNL1        0.0598
     11 C         140.7253  140.0898  168.2413 C.2     1  UNL1        0.0047
     12 O         141.5133  141.1659  171.8270 O.2     1  UNL1       -0.2681
     13 C         141.9285  140.7264  170.4543 C.2     1  UNL1        0.2679
     14 N         143.1624  139.8926  170.2750 N.am    1  UNL1       -0.1934
     15 O         143.9811  139.4983  171.4684 O.3     1  UNL1       -0.2949
     16 H         143.4349  139.6041  169.3740 H       1  UNL1        0.1825
     17 H         143.5771  139.8616  172.2720 H       1  UNL1        0.2414
     18 C         138.2567  139.7068  161.9661 C.3     1  UNL1        0.0736
     19 C         139.5528  140.2188  161.4111 C.3     1  UNL1        0.0450
     20 C         140.6856  140.5514  162.3364 C.2     1  UNL1       -0.0020
     21 C         141.4270  141.8543  162.3899 C.2     1  UNL1        0.0770
     22 N         142.4755  141.7475  163.4572 N.2     1  UNL1       -0.2497
     23 C         142.3822  140.3786  164.0634 C.2     1  UNL1        0.0630
     24 C         143.1616  139.7098  165.1566 C.3     1  UNL1        0.0717
     25 C         142.8348  138.3017  165.5571 C.2     1  UNL1       -0.0198
     26 C         141.7286  137.5624  164.8644 C.2     1  UNL1       -0.0042
     27 C         140.9492  138.2313  163.7712 C.2     1  UNL1        0.0006
     28 C         141.2760  139.6393  163.3707 C.2     1  UNL1        0.0114
     29 C         141.1656  143.0534  161.5274 C.ar    1  UNL1        0.0173
     30 C         140.4003  144.2203  162.0774 C.ar    1  UNL1        0.0015
     31 C         140.1390  145.4195  161.2150 C.ar    1  UNL1        0.0000
     32 C         140.6430  145.4517  159.8026 C.ar    1  UNL1        0.0000
     33 C         141.4084  144.2848  159.2526 C.ar    1  UNL1        0.0000
     34 C         141.6697  143.0856  160.1151 C.ar    1  UNL1        0.0015
@<TRIPOS>BOND
     1    12    13    2
     2    13    10    1
     3    10    11    2
     4    11     4    1
     5     4     5   ar
     6     5     6   ar
     7     6     7   ar
     8     7     3    1
     9     3     1    1
    10     1    18    1
    11    18    19    1
    12    19    20    1
    13    20    21    2
    14    21    29    1
    15    29    30   ar
    16    30    31   ar
    17    31    32   ar
    18    32    33   ar
    19    33    34   ar
    20    21    22    1
    21    22    23    2
    22    23    24    1
    23    24    25    1
    24    25    26    2
    25    26    27    1
    26    27    28    2
    27     7     8   ar
    28     8     9   ar
    29    13    14   am
    30    14    15    1
    31     9     4   ar
    32    28    20    1
    33    34    29   ar
    34    28    23    1
    35     1     2    1
    36    14    16    1
    37    15    17    1
@<TRIPOS>MOLECULE
*****
 34 37 0 0 0
SMALL
GASTEIGER

@<TRIPOS>ATOM
      1 N         138.7891  137.8478  162.4102 N.3     1  UNL1       -0.2935
      2 H         138.6409  136.9588  161.9325 H       1  UNL1        0.1236
      3 C         138.8334  137.5479  163.8792 C.3     1  UNL1        0.0956
      4 C         140.6610  140.5145  166.7270 C.ar    1  UNL1        0.0001
      5 C         139.1694  140.3892  166.6294 C.ar    1  UNL1       -0.0003
      6 C         138.5601  139.4004  165.6802 C.ar    1  UNL1       -0.0029
      7 C         139.4426  138.5367  164.8285 C.ar    1  UNL1       -0.0064
      8 C         140.9342  138.6619  164.9260 C.ar    1  UNL1       -0.0029
      9 C         141.5434  139.6508  165.8752 C.ar    1  UNL1       -0.0003
     10 C         140.3972  142.2607  168.6324 C.2     1  UNL1        0.0598
     11 C         141.2701  141.5033  167.6762 C.2     1  UNL1        0.0047
     12 O         140.2124  144.4375  170.0386 O.2     1  UNL1       -0.2681
     13 C         141.0063  143.2496  169.5817 C.2     1  UNL1        0.2679
     14 N         142.4091  143.0507  170.0741 N.am    1  UNL1       -0.1934
     15 O         143.0181  144.0397  171.0233 O.3     1  UNL1       -0.2949
     16 H         142.9301  142.2711  169.7742 H       1  UNL1        0.1825
     17 H         142.3761  144.7410  171.2155 H       1  UNL1        0.2414
     18 C         137.7679  138.8048  161.8706 C.3     1  UNL1        0.0736
     19 C         138.1939  140.1541  161.3724 C.3     1  UNL1        0.0450
     20 C         139.2673  140.9150  162.0927 C.2     1  UNL1       -0.0020
     21 C         140.7457  140.7488  161.9012 C.2     1  UNL1        0.0770
     22 N         141.4428  141.7068  162.8212 N.2     1  UNL1       -0.2497
     23 C         140.3952  142.4649  163.5813 C.2     1  UNL1        0.0630
     24 C         140.4920  143.5376  164.6253 C.3     1  UNL1        0.0717
     25 C         139.2441  144.1210  165.2190 C.2     1  UNL1       -0.0198
     26 C         137.8996  143.6316  164.7688 C.2     1  UNL1       -0.0042
     27 C         137.8029  142.5589  163.7249 C.2     1  UNL1        0.0006
     28 C         139.0507  141.9755  163.1311 C.2     1  UNL1        0.0114
     29 C         141.4103  139.7927  160.9556 C.ar    1  UNL1        0.0173
     30 C         142.2569  138.6758  161.4902 C.ar    1  UNL1        0.0015
     31 C         142.9215  137.7197  160.5447 C.ar    1  UNL1        0.0000
     32 C         142.7396  137.8804  159.0645 C.ar    1  UNL1        0.0000
     33 C         141.8930  138.9973  158.5299 C.ar    1  UNL1        0.0000
     34 C         141.2284  139.9534  159.4754 C.ar    1  UNL1        0.0015
@<TRIPOS>BOND
     1    12    13    2
     2    13    10    1
     3    10    11    2
     4    11     4    1
     5     4     5   ar
     6     5     6   ar
     7     6     7   ar
     8     7     3    1
     9     3     1    1
    10     1    18    1
    11    18    19    1
    12    19    20    1
    13    20    21    2
    14    21    29    1
    15    29    30   ar
    16    30    31   ar
    17    31    32   ar
    18    32    33   ar
    19    33    34   ar
    20    21    22    1
    21    22    23    2
    22    23    24    1
    23    24    25    1
    24    25    26    2
    25    26    27    1
    26    27    28    2
    27     7     8   ar
    28     8     9   ar
    29    13    14   am
    30    14    15    1
    31     9     4   ar
    32    28    20    1
    33    34    29   ar
    34    28    23    1
    35     1     2    1
    36    14    16    1
    37    15    17    1
@<TRIPOS>MOLECULE
*****
 34 37 0 0 0
SMALL
GASTEIGER

@<TRIPOS>ATOM
      1 N         139.4267  139.3162  160.8992 N.3     1  UNL1       -0.2935
      2 H         139.2619  140.2293  160.4757 H       1  UNL1        0.1236
      3 C         138.2623  139.0419  161.8041 C.3     1  UNL1        0.0956
      4 C         138.7452  139.4015  166.2637 C.ar    1  UNL1        0.0001
      5 C         138.2998  140.5868  165.4595 C.ar    1  UNL1       -0.0003
      6 C         138.1388  140.4670  163.9729 C.ar    1  UNL1       -0.0029
      7 C         138.4233  139.1618  163.2906 C.ar    1  UNL1       -0.0064
      8 C         138.8687  137.9764  164.0948 C.ar    1  UNL1       -0.0029
      9 C         139.0296  138.0963  165.5813 C.ar    1  UNL1       -0.0003
     10 C         139.6131  140.7081  168.3346 C.2     1  UNL1        0.0598
     11 C         138.9061  139.5214  167.7502 C.2     1  UNL1        0.0047
     12 O         139.4530  139.6609  170.7069 O.2     1  UNL1       -0.2681
     13 C         139.7741  140.8281  169.8212 C.2     1  UNL1        0.2679
     14 N         140.2562  142.1152  170.4220 N.am    1  UNL1       -0.1934
     15 O         140.4171  142.2351  171.9085 O.3     1  UNL1       -0.2949
     16 H         140.4670  142.8813  169.8407 H       1  UNL1        0.1825
     17 H         140.1691  141.3970  172.3292 H       1  UNL1        0.2414
     18 C         140.8193  139.3421  161.4560 C.3     1  UNL1        0.0736
     19 C         141.4579  140.6502  161.8185 C.3     1  UNL1        0.0450
     20 C         141.6209  141.0311  163.2602 C.2     1  UNL1       -0.0020
     21 C         141.3085  142.3705  163.8590 C.2     1  UNL1        0.0770
     22 N         141.6195  142.3066  165.3250 N.2     1  UNL1       -0.2497
     23 C         142.1240  140.9278  165.6323 C.2     1  UNL1        0.0630
     24 C         142.5827  140.2884  166.9092 C.3     1  UNL1        0.0717
     25 C         143.0422  138.8605  166.9100 C.2     1  UNL1       -0.0198
     26 C         143.0431  138.0722  165.6338 C.2     1  UNL1       -0.0042
     27 C         142.5844  138.7117  164.3569 C.2     1  UNL1        0.0006
     28 C         142.1249  140.1395  164.3561 C.2     1  UNL1        0.0114
     29 C         140.7784  143.5641  163.1212 C.ar    1  UNL1        0.0173
     30 C         141.6262  144.2444  162.0877 C.ar    1  UNL1        0.0015
     31 C         141.0960  145.4380  161.3499 C.ar    1  UNL1        0.0000
     32 C         139.7180  145.9513  161.6458 C.ar    1  UNL1        0.0000
     33 C         138.8702  145.2710  162.6794 C.ar    1  UNL1        0.0000
     34 C         139.4004  144.0774  163.4171 C.ar    1  UNL1        0.0015
@<TRIPOS>BOND
     1    12    13    2
     2    13    10    1
     3    10    11    2
     4    11     4    1
     5     4     5   ar
     6     5     6   ar
     7     6     7   ar
     8     7     3    1
     9     3     1    1
    10     1    18    1
    11    18    19    1
    12    19    20    1
    13    20    21    2
    14    21    29    1
    15    29    30   ar
    16    30    31   ar
    17    31    32   ar
    18    32    33   ar
    19    33    34   ar
    20    21    22    1
    21    22    23    2
    22    23    24    1
    23    24    25    1
    24    25    26    2
    25    26    27    1
    26    27    28    2
    27     7     8   ar
    28     8     9   ar
    29    13    14   am
    30    14    15    1
    31     9     4   ar
    32    28    20    1
    33    34    29   ar
    34    28    23    1
    35     1     2    1
    36    14    16    1
    37    15    17    1
@<TRIPOS>MOLECULE
*****
 34 37 0 0 0
SMALL
GASTEIGER

@<TRIPOS>ATOM
      1 N         144.1518  139.1341  162.1954 N.3     1  UNL1       -0.2935
      2 H         144.9526  138.8513  161.6305 H       1  UNL1        0.1236
      3 C         144.6896  139.5462  163.5336 C.3     1  UNL1        0.0956
      4 C         141.8727  140.2403  166.9737 C.ar    1  UNL1        0.0001
      5 C         142.2607  141.3809  166.0801 C.ar    1  UNL1       -0.0003
      6 C         143.1996  141.1496  164.9333 C.ar    1  UNL1       -0.0029
      7 C         143.7506  139.7776  164.6803 C.ar    1  UNL1       -0.0064
      8 C         143.3627  138.6369  165.5739 C.ar    1  UNL1       -0.0029
      9 C         142.4237  138.8683  166.7206 C.ar    1  UNL1       -0.0003
     10 C         140.7840  141.8465  168.7012 C.2     1  UNL1        0.0598
     11 C         140.9338  140.4717  168.1203 C.2     1  UNL1        0.0047
     12 O         138.9859  140.9564  170.3518 O.2     1  UNL1       -0.2681
     13 C         139.8450  142.0780  169.8479 C.2     1  UNL1        0.2679
     14 N         139.7652  143.4309  170.4906 N.am    1  UNL1       -0.1934
     15 O         138.8263  143.6623  171.6373 O.3     1  UNL1       -0.2949
     16 H         140.3291  144.1671  170.1599 H       1  UNL1        0.1825
     17 H         138.3496  142.8412  171.8356 H       1  UNL1        0.2414
     18 C         143.1430  138.0279  162.1009 C.3     1  UNL1        0.0736
     19 C         141.7367  138.3297  161.6750 C.3     1  UNL1        0.0450
     20 C         140.9118  139.3116  162.4531 C.2     1  UNL1       -0.0020
     21 C         140.8039  140.7829  162.1818 C.2     1  UNL1        0.0770
     22 N         139.8754  141.3751  163.2002 N.2     1  UNL1       -0.2497
     23 C         139.4093  140.2699  164.1008 C.2     1  UNL1        0.0630
     24 C         138.4845  140.2600  165.2817 C.3     1  UNL1        0.0717
     25 C         138.2002  138.9747  166.0008 C.2     1  UNL1       -0.0198
     26 C         138.8407  137.6993  165.5391 C.2     1  UNL1       -0.0042
     27 C         139.7656  137.7092  164.3583 C.2     1  UNL1        0.0006
     28 C         140.0499  138.9945  163.6391 C.2     1  UNL1        0.0114
     29 C         141.5021  141.5307  161.0848 C.ar    1  UNL1        0.0173
     30 C         141.0327  141.3932  159.6668 C.ar    1  UNL1        0.0015
     31 C         141.7308  142.1410  158.5698 C.ar    1  UNL1        0.0000
     32 C         142.8983  143.0263  158.8908 C.ar    1  UNL1        0.0000
     33 C         143.3678  143.1638  160.3087 C.ar    1  UNL1        0.0000
     34 C         142.6696  142.4160  161.4058 C.ar    1  UNL1        0.0015
@<TRIPOS>BOND
     1    12    13    2
     2    13    10    1
     3    10    11    2
     4    11     4    1
     5     4     5   ar
     6     5     6   ar
     7     6     7   ar
     8     7     3    1
     9     3     1    1
    10     1    18    1
    11    18    19    1
    12    19    20    1
    13    20    21    2
    14    21    29    1
    15    29    30   ar
    16    30    31   ar
    17    31    32   ar
    18    32    33   ar
    19    33    34   ar
    20    21    22    1
    21    22    23    2
    22    23    24    1
    23    24    25    1
    24    25    26    2
    25    26    27    1
    26    27    28    2
    27     7     8   ar
    28     8     9   ar
    29    13    14   am
    30    14    15    1
    31     9     4   ar
    32    28    20    1
    33    34    29   ar
    34    28    23    1
    35     1     2    1
    36    14    16    1
    37    15    17    1
@<TRIPOS>MOLECULE
*****
 34 37 0 0 0
SMALL
GASTEIGER

@<TRIPOS>ATOM
      1 N         141.8534  137.3544  162.0841 N.3     1  UNL1       -0.2935
      2 H         141.1319  137.0689  162.7462 H       1  UNL1        0.1236
      3 C         142.8949  138.0936  162.8707 C.3     1  UNL1        0.0956
      4 C         141.6554  140.9292  166.1377 C.ar    1  UNL1        0.0001
      5 C         142.0014  141.4576  164.7772 C.ar    1  UNL1       -0.0003
      6 C         142.4145  140.5125  163.6881 C.ar    1  UNL1       -0.0029
      7 C         142.4818  139.0388  163.9597 C.ar    1  UNL1       -0.0064
      8 C         142.1358  138.5103  165.3203 C.ar    1  UNL1       -0.0029
      9 C         141.7227  139.4555  166.4093 C.ar    1  UNL1       -0.0003
     10 C         140.6659  141.3404  168.5044 C.2     1  UNL1        0.0598
     11 C         141.2423  141.8744  167.2267 C.2     1  UNL1        0.0047
     12 O         139.8323  141.7513  170.9306 O.2     1  UNL1       -0.2681
     13 C         140.2527  142.2856  169.5935 C.2     1  UNL1        0.2679
     14 N         140.2600  143.7649  169.3455 N.am    1  UNL1       -0.1934
     15 O         139.8468  144.7100  170.4346 O.3     1  UNL1       -0.2949
     16 H         140.5360  144.1156  168.4680 H       1  UNL1        0.1825
     17 H         139.6072  144.2049  171.2273 H       1  UNL1        0.2414
     18 C         141.1517  138.0333  160.9453 C.3     1  UNL1        0.0736
     19 C         139.7071  138.4157  161.0753 C.3     1  UNL1        0.0450
     20 C         139.2663  139.3117  162.1946 C.2     1  UNL1       -0.0020
     21 C         139.1138  140.8022  162.1229 C.2     1  UNL1        0.0770
     22 N         138.6539  141.2862  163.4661 N.2     1  UNL1       -0.2497
     23 C         138.5220  140.0949  164.3679 C.2     1  UNL1        0.0630
     24 C         138.1063  139.9636  165.8031 C.3     1  UNL1        0.0717
     25 C         138.0690  138.6120  166.4525 C.2     1  UNL1       -0.0198
     26 C         138.4475  137.3917  165.6667 C.2     1  UNL1       -0.0042
     27 C         138.8632  137.5230  164.2315 C.2     1  UNL1        0.0006
     28 C         138.9005  138.8746  163.5821 C.2     1  UNL1        0.0114
     29 C         139.3754  141.6584  160.9193 C.ar    1  UNL1        0.0173
     30 C         140.6470  142.4482  160.8228 C.ar    1  UNL1        0.0015
     31 C         140.9086  143.3043  159.6192 C.ar    1  UNL1        0.0000
     32 C         139.8986  143.3707  158.5122 C.ar    1  UNL1        0.0000
     33 C         138.6271  142.5809  158.6088 C.ar    1  UNL1        0.0000
     34 C         138.3655  141.7248  159.8123 C.ar    1  UNL1        0.0015
@<TRIPOS>BOND
     1    12    13    2
     2    13    10    1
     3    10    11    2
     4    11     4    1
     5     4     5   ar
     6     5     6   ar
     7     6     7   ar
     8     7     3    1
     9     3     1    1
    10     1    18    1
    11    18    19    1
    12    19    20    1
    13    20    21    2
    14    21    29    1
    15    29    30   ar
    16    30    31   ar
    17    31    32   ar
    18    32    33   ar
    19    33    34   ar
    20    21    22    1
    21    22    23    2
    22    23    24    1
    23    24    25    1
    24    25    26    2
    25    26    27    1
    26    27    28    2
    27     7     8   ar
    28     8     9   ar
    29    13    14   am
    30    14    15    1
    31     9     4   ar
    32    28    20    1
    33    34    29   ar
    34    28    23    1
    35     1     2    1
    36    14    16    1
    37    15    17    1
@<TRIPOS>MOLECULE
*****
 34 37 0 0 0
SMALL
GASTEIGER

@<TRIPOS>ATOM
      1 N         143.8562  139.9733  162.3769 N.3     1  UNL1       -0.2935
      2 H         144.4715  139.4793  161.7305 H       1  UNL1        0.1236
      3 C         144.4850  139.8738  163.7350 C.3     1  UNL1        0.0956
      4 C         142.0056  140.5948  167.4205 C.ar    1  UNL1        0.0001
      5 C         142.3707  139.1949  167.0242 C.ar    1  UNL1       -0.0003
      6 C         143.1972  138.9546  165.7957 C.ar    1  UNL1       -0.0029
      7 C         143.6586  140.1141  164.9635 C.ar    1  UNL1       -0.0064
      8 C         143.2935  141.5141  165.3599 C.ar    1  UNL1       -0.0029
      9 C         142.4670  141.7544  166.5884 C.ar    1  UNL1       -0.0003
     10 C         141.2568  142.1542  169.3589 C.2     1  UNL1        0.0598
     11 C         141.1792  140.8351  168.6490 C.2     1  UNL1        0.0047
     12 O         140.5505  141.4724  171.7643 O.2     1  UNL1       -0.2681
     13 C         140.4303  142.3946  170.5874 C.2     1  UNL1        0.2679
     14 N         139.4838  143.5570  170.6391 N.am    1  UNL1       -0.1934
     15 O         138.6574  143.7973  171.8676 O.3     1  UNL1       -0.2949
     16 H         139.4049  144.1623  169.8666 H       1  UNL1        0.1825
     17 H         138.8547  143.1153  172.5285 H       1  UNL1        0.2414
     18 C         142.4725  139.4403  162.1503 C.3     1  UNL1        0.0736
     19 C         141.3080  140.3831  162.0785 C.3     1  UNL1        0.0450
     20 C         140.3992  140.5440  163.2610 C.2     1  UNL1       -0.0020
     21 C         139.8815  141.8425  163.8049 C.2     1  UNL1        0.0770
     22 N         139.0109  141.5355  164.9872 N.2     1  UNL1       -0.2497
     23 C         138.9907  140.0473  165.1741 C.2     1  UNL1        0.0630
     24 C         138.3018  139.1710  166.1778 C.3     1  UNL1        0.0717
     25 C         138.4709  137.6820  166.1147 C.2     1  UNL1       -0.0198
     26 C         139.3290  137.0692  165.0478 C.2     1  UNL1       -0.0042
     27 C         140.0178  137.9454  164.0440 C.2     1  UNL1        0.0006
     28 C         139.8487  139.4345  164.1072 C.2     1  UNL1        0.0114
     29 C         140.1815  143.2081  163.2618 C.ar    1  UNL1        0.0173
     30 C         139.4827  143.6944  162.0269 C.ar    1  UNL1        0.0015
     31 C         139.7827  145.0600  161.4838 C.ar    1  UNL1        0.0000
     32 C         140.7817  145.9394  162.1757 C.ar    1  UNL1        0.0000
     33 C         141.4806  145.4532  163.4106 C.ar    1  UNL1        0.0000
     34 C         141.1805  144.0875  163.9537 C.ar    1  UNL1        0.0015
@<TRIPOS>BOND
     1    12    13    2
     2    13    10    1
     3    10    11    2
     4    11     4    1
     5     4     5   ar
     6     5     6   ar
     7     6     7   ar
     8     7     3    1
     9     3     1    1
    10     1    18    1
    11    18    19    1
    12    19    20    1
    13    20    21    2
    14    21    29    1
    15    29    30   ar
    16    30    31   ar
    17    31    32   ar
    18    32    33   ar
    19    33    34   ar
    20    21    22    1
    21    22    23    2
    22    23    24    1
    23    24    25    1
    24    25    26    2
    25    26    27    1
    26    27    28    2
    27     7     8   ar
    28     8     9   ar
    29    13    14   am
    30    14    15    1
    31     9     4   ar
    32    28    20    1
    33    34    29   ar
    34    28    23    1
    35     1     2    1
    36    14    16    1
    37    15    17    1
@<TRIPOS>MOLECULE
*****
 34 37 0 0 0
SMALL
GASTEIGER

@<TRIPOS>ATOM
      1 N         144.7585  143.6499  162.2536 N.3     1  UNL1       -0.2935
      2 H         145.3901  142.9602  162.6609 H       1  UNL1        0.1236
      3 C         144.1539  144.4112  163.3959 C.3     1  UNL1        0.0956
      4 C         141.4139  142.3235  166.2915 C.ar    1  UNL1        0.0001
      5 C         140.8416  143.0777  165.1281 C.ar    1  UNL1       -0.0003
      6 C         141.7549  143.7736  164.1628 C.ar    1  UNL1       -0.0029
      7 C         143.2406  143.7153  164.3611 C.ar    1  UNL1       -0.0064
      8 C         143.8130  142.9611  165.5246 C.ar    1  UNL1       -0.0029
      9 C         142.8996  142.2652  166.4898 C.ar    1  UNL1       -0.0003
     10 C         141.0654  140.6816  168.2745 C.2     1  UNL1        0.0598
     11 C         140.5006  141.6276  167.2567 C.2     1  UNL1        0.0047
     12 O         138.7739  139.5801  168.8087 O.2     1  UNL1       -0.2681
     13 C         140.1521  139.9856  169.2397 C.2     1  UNL1        0.2679
     14 N         140.6171  139.6953  170.6360 N.am    1  UNL1       -0.1934
     15 O         139.7038  138.9993  171.6011 O.3     1  UNL1       -0.2949
     16 H         141.5217  139.9615  170.9189 H       1  UNL1        0.1825
     17 H         138.8581  138.8088  171.1660 H       1  UNL1        0.2414
     18 C         143.8741  142.9126  161.2922 C.3     1  UNL1        0.0736
     19 C         143.7969  141.4153  161.3411 C.3     1  UNL1        0.0450
     20 C         142.7789  140.7450  162.2154 C.2     1  UNL1       -0.0020
     21 C         141.2969  140.7222  161.9848 C.2     1  UNL1        0.0770
     22 N         140.6662  139.9429  163.1006 N.2     1  UNL1       -0.2497
     23 C         141.7584  139.4841  164.0207 C.2     1  UNL1        0.0630
     24 C         141.7327  138.6790  165.2861 C.3     1  UNL1        0.0717
     25 C         143.0127  138.3697  166.0043 C.2     1  UNL1       -0.0198
     26 C         144.3184  138.8654  165.4572 C.2     1  UNL1       -0.0042
     27 C         144.3441  139.6705  164.1918 C.2     1  UNL1        0.0006
     28 C         143.0641  139.9799  163.4736 C.2     1  UNL1        0.0114
     29 C         140.5727  141.3656  160.8396 C.ar    1  UNL1        0.0173
     30 C         140.3056  140.5845  159.5873 C.ar    1  UNL1        0.0015
     31 C         139.5814  141.2279  158.4420 C.ar    1  UNL1        0.0000
     32 C         139.1244  142.6525  158.5491 C.ar    1  UNL1        0.0000
     33 C         139.3915  143.4337  159.8014 C.ar    1  UNL1        0.0000
     34 C         140.1157  142.7903  160.9467 C.ar    1  UNL1        0.0015
@<TRIPOS>BOND
     1    12    13    2
     2    13    10    1
     3    10    11    2
     4    11     4    1
     5     4     5   ar
     6     5     6   ar
     7     6     7   ar
     8     7     3    1
     9     3     1    1
    10     1    18    1
    11    18    19    1
    12    19    20    1
    13    20    21    2
    14    21    29    1
    15    29    30   ar
    16    30    31   ar
    17    31    32   ar
    18    32    33   ar
    19    33    34   ar
    20    21    22    1
    21    22    23    2
    22    23    24    1
    23    24    25    1
    24    25    26    2
    25    26    27    1
    26    27    28    2
    27     7     8   ar
    28     8     9   ar
    29    13    14   am
    30    14    15    1
    31     9     4   ar
    32    28    20    1
    33    34    29   ar
    34    28    23    1
    35     1     2    1
    36    14    16    1
    37    15    17    1
@<TRIPOS>MOLECULE
*****
 34 37 0 0 0
SMALL
GASTEIGER

@<TRIPOS>ATOM
      1 N         139.2124  137.6369  161.0789 N.3     1  UNL1       -0.2935
      2 H         138.7625  137.1168  160.3256 H       1  UNL1        0.1236
      3 C         138.1163  138.1575  161.9606 C.3     1  UNL1        0.0956
      4 C         139.1225  140.0885  165.8988 C.ar    1  UNL1        0.0001
      5 C         139.2124  138.5987  165.7493 C.ar    1  UNL1       -0.0003
      6 C         138.8770  137.9549  164.4365 C.ar    1  UNL1       -0.0029
      7 C         138.4517  138.8011  163.2733 C.ar    1  UNL1       -0.0064
      8 C         138.3618  140.2910  163.4228 C.ar    1  UNL1       -0.0029
      9 C         138.6972  140.9346  164.7356 C.ar    1  UNL1       -0.0003
     10 C         139.4365  139.9196  168.4722 C.2     1  UNL1        0.0598
     11 C         139.4579  140.7321  167.2115 C.2     1  UNL1        0.0047
     12 O         139.5618  142.0364  169.9734 O.2     1  UNL1       -0.2681
     13 C         139.7718  140.5632  169.7850 C.2     1  UNL1        0.2679
     14 N         140.3173  139.7336  170.9094 N.am    1  UNL1       -0.1934
     15 O         140.6526  140.3772  172.2222 O.3     1  UNL1       -0.2949
     16 H         140.4551  138.7667  170.7858 H       1  UNL1        0.1825
     17 H         140.4590  141.3266  172.1756 H       1  UNL1        0.2414
     18 C         140.1722  138.5915  160.4327 C.3     1  UNL1        0.0736
     19 C         141.5408  138.7881  161.0147 C.3     1  UNL1        0.0450
     20 C         141.7627  139.8251  162.0755 C.2     1  UNL1       -0.0020
     21 C         141.5796  141.3051  161.9138 C.2     1  UNL1        0.0770
     22 N         141.9105  141.9588  163.2226 N.2     1  UNL1       -0.2497
     23 C         142.2982  140.8829  164.1933 C.2     1  UNL1        0.0630
     24 C         142.7226  140.9337  165.6311 C.3     1  UNL1        0.0717
     25 C         143.0556  139.6657  166.3599 C.2     1  UNL1       -0.0198
     26 C         142.9643  138.3470  165.6509 C.2     1  UNL1       -0.0042
     27 C         142.5399  138.2962  164.2131 C.2     1  UNL1        0.0006
     28 C         142.2069  139.5642  163.4843 C.2     1  UNL1        0.0114
     29 C         141.1422  142.0079  160.6629 C.ar    1  UNL1        0.0173
     30 C         139.6937  142.3370  160.4549 C.ar    1  UNL1        0.0015
     31 C         139.2564  143.0398  159.2039 C.ar    1  UNL1        0.0000
     32 C         140.2676  143.4135  158.1610 C.ar    1  UNL1        0.0000
     33 C         141.7161  143.0843  158.3690 C.ar    1  UNL1        0.0000
     34 C         142.1534  142.3815  159.6199 C.ar    1  UNL1        0.0015
@<TRIPOS>BOND
     1    12    13    2
     2    13    10    1
     3    10    11    2
     4    11     4    1
     5     4     5   ar
     6     5     6   ar
     7     6     7   ar
     8     7     3    1
     9     3     1    1
    10     1    18    1
    11    18    19    1
    12    19    20    1
    13    20    21    2
    14    21    29    1
    15    29    30   ar
    16    30    31   ar
    17    31    32   ar
    18    32    33   ar
    19    33    34   ar
    20    21    22    1
    21    22    23    2
    22    23    24    1
    23    24    25    1
    24    25    26    2
    25    26    27    1
    26    27    28    2
    27     7     8   ar
    28     8     9   ar
    29    13    14   am
    30    14    15    1
    31     9     4   ar
    32    28    20    1
    33    34    29   ar
    34    28    23    1
    35     1     2    1
    36    14    16    1
    37    15    17    1
@<TRIPOS>MOLECULE
*****
 34 37 0 0 0
SMALL
GASTEIGER

@<TRIPOS>ATOM
      1 N         144.9935  142.0635  161.9846 N.3     1  UNL1       -0.2935
      2 H         145.2932  141.4488  161.2278 H       1  UNL1        0.1236
      3 C         145.5716  141.5048  163.2509 C.3     1  UNL1        0.0956
      4 C         142.8436  139.9793  166.4884 C.ar    1  UNL1        0.0001
      5 C         142.8649  141.4411  166.1526 C.ar    1  UNL1       -0.0003
      6 C         143.7743  141.9497  165.0735 C.ar    1  UNL1       -0.0029
      7 C         144.6622  140.9964  164.3301 C.ar    1  UNL1       -0.0064
      8 C         144.6409  139.5345  164.6658 C.ar    1  UNL1       -0.0029
      9 C         143.7315  139.0260  165.7450 C.ar    1  UNL1       -0.0003
     10 C         140.9199  140.3863  168.1865 C.2     1  UNL1        0.0598
     11 C         141.9342  139.4709  167.5675 C.2     1  UNL1        0.0047
     12 O         138.5477  139.6944  168.9889 O.2     1  UNL1       -0.2681
     13 C         140.0104  139.8779  169.2656 C.2     1  UNL1        0.2679
     14 N         140.5638  139.5530  170.6215 N.am    1  UNL1       -0.1934
     15 O         139.6543  139.0446  171.7005 O.3     1  UNL1       -0.2949
     16 H         141.5238  139.6734  170.8031 H       1  UNL1        0.1825
     17 H         138.7486  138.9848  171.3585 H       1  UNL1        0.2414
     18 C         143.5089  142.2279  161.8467 C.3     1  UNL1        0.0736
     19 C         142.6381  141.0259  161.6294 C.3     1  UNL1        0.0450
     20 C         141.4899  140.7544  162.5557 C.2     1  UNL1       -0.0020
     21 C         140.4627  141.7519  163.0026 C.2     1  UNL1        0.0770
     22 N         139.5053  141.0516  163.9207 N.2     1  UNL1       -0.2497
     23 C         139.9408  139.6213  164.0412 C.2     1  UNL1        0.0630
     24 C         139.3789  138.4624  164.8101 C.3     1  UNL1        0.0717
     25 C         140.0436  137.1199  164.7354 C.2     1  UNL1       -0.0198
     26 C         141.2702  136.9362  163.8918 C.2     1  UNL1       -0.0042
     27 C         141.8321  138.0950  163.1228 C.2     1  UNL1        0.0006
     28 C         141.1674  139.4376  163.1975 C.2     1  UNL1        0.0114
     29 C         140.4033  143.1961  162.6017 C.ar    1  UNL1        0.0173
     30 C         140.7458  144.2653  163.5965 C.ar    1  UNL1        0.0015
     31 C         140.6864  145.7095  163.1957 C.ar    1  UNL1        0.0000
     32 C         140.2845  146.0846  161.8001 C.ar    1  UNL1        0.0000
     33 C         139.9420  145.0155  160.8053 C.ar    1  UNL1        0.0000
     34 C         140.0014  143.5712  161.2061 C.ar    1  UNL1        0.0015
@<TRIPOS>BOND
     1    12    13    2
     2    13    10    1
     3    10    11    2
     4    11     4    1
     5     4     5   ar
     6     5     6   ar
     7     6     7   ar
     8     7     3    1
     9     3     1    1
    10     1    18    1
    11    18    19    1
    12    19    20    1
    13    20    21    2
    14    21    29    1
    15    29    30   ar
    16    30    31   ar
    17    31    32   ar
    18    32    33   ar
    19    33    34   ar
    20    21    22    1
    21    22    23    2
    22    23    24    1
    23    24    25    1
    24    25    26    2
    25    26    27    1
    26    27    28    2
    27     7     8   ar
    28     8     9   ar
    29    13    14   am
    30    14    15    1
    31     9     4   ar
    32    28    20    1
    33    34    29   ar
    34    28    23    1
    35     1     2    1
    36    14    16    1
    37    15    17    1
