@<TRIPOS>MOLECULE
*****
 38 42 0 0 0
SMALL
GASTEIGER

@<TRIPOS>ATOM
      1 C         140.2064  141.0843  164.2074 C.2     1  UNL1        0.0378
      2 C         141.4612  140.7311  163.4653 C.2     1  UNL1        0.1000
      3 N         141.7258  141.8131  162.4607 N.2     1  UNL1       -0.2461
      4 C         140.6344  142.8351  162.5820 C.2     1  UNL1        0.0811
      5 C         140.3744  144.1176  161.8488 C.3     1  UNL1        0.1346
      6 C         139.1754  144.9497  162.1952 C.2     1  UNL1       -0.0009
      7 C         138.2364  144.4992  163.2747 C.2     1  UNL1       -0.0025
      8 C         138.4964  143.2167  164.0078 C.2     1  UNL1        0.0011
      9 C         139.6954  142.3846  163.6615 C.2     1  UNL1        0.0184
     10 C         138.4143  138.7761  163.5288 C.3     1  UNL1        0.0342
     11 C         138.6776  139.1246  164.9638 C.ar    1  UNL1        0.0151
     12 C         138.0449  138.3189  166.0595 C.ar    1  UNL1        0.0990
     13 N         138.3081  138.6673  167.4945 N.ar    1  UNL1       -0.2123
     14 C         139.2041  139.8214  167.8338 C.ar    1  UNL1        0.2207
     15 N         139.8369  140.6271  166.7381 N.ar    1  UNL1       -0.2138
     16 C         139.5737  140.2787  165.3031 C.ar    1  UNL1        0.0832
     17 N         139.4674  140.1699  169.2689 N.pl3   1  UNL1       -0.2816
     18 H         138.9235  139.7637  169.9819 H       1  UNL1        0.1551
     19 C         140.5595  141.1373  169.6176 C.ar    1  UNL1        0.0642
     20 C         140.2558  142.6017  169.7323 C.ar    1  UNL1        0.0175
     21 C         141.3478  143.5691  170.0810 C.ar    1  UNL1        0.0219
     22 C         142.7435  143.0720  170.3149 C.ar    1  UNL1        0.0985
     23 N         143.0473  141.6076  170.2002 N.ar    1  UNL1       -0.2469
     24 C         141.9552  140.6402  169.8515 C.ar    1  UNL1        0.0728
     25 C         142.2589  139.1758  169.7368 C.3     1  UNL1        0.0534
     26 N         141.3134  144.5680  160.7693 N.am    1  UNL1       -0.2964
     27 C         141.0966  144.1236  159.3531 C.2     1  UNL1        0.2374
     28 O         139.9407  143.2288  159.0165 O.2     1  UNL1       -0.2736
     29 H         142.0720  145.1553  160.9902 H       1  UNL1        0.1501
     30 C         142.0355  144.5740  158.2736 C.3     1  UNL1        0.1349
     31 C         142.0301  146.0050  157.8238 C.3     1  UNL1        0.0272
     32 N         142.9800  143.5934  157.6438 N.3     1  UNL1       -0.2641
     33 C         143.9444  142.8260  158.4988 C.3     1  UNL1        0.0900
     34 C         144.8889  141.8455  157.8691 C.3     1  UNL1        0.0897
     35 N         144.8689  141.6323  156.3845 N.3     1  UNL1       -0.2691
     36 C         145.8133  140.6518  155.7547 C.3     1  UNL1        0.0897
     37 C         143.9044  142.3998  155.5296 C.3     1  UNL1        0.0897
     38 C         142.9600  143.3803  156.1592 C.3     1  UNL1        0.0900
@<TRIPOS>BOND
     1    10    11    1
     2    11    12   ar
     3    12    13   ar
     4    13    14   ar
     5    14    17    1
     6    17    19    1
     7    19    20   ar
     8    20    21   ar
     9    21    22   ar
    10    22    23   ar
    11    23    24   ar
    12    24    25    1
    13    14    15   ar
    14    15    16   ar
    15    16     1    1
    16     1     2    2
    17     2     3    1
    18     3     4    2
    19     4     5    1
    20     5    26    1
    21    26    27   am
    22    27    28    2
    23    27    30    1
    24    30    31    1
    25    30    32    1
    26    32    33    1
    27    33    34    1
    28    34    35    1
    29    35    36    1
    30    35    37    1
    31    37    38    1
    32     5     6    1
    33     6     7    2
    34     7     8    1
    35     8     9    2
    36    16    11   ar
    37     9     1    1
    38    24    19   ar
    39     9     4    1
    40    38    32    1
    41    17    18    1
    42    26    29    1
@<TRIPOS>MOLECULE
*****
 38 42 0 0 0
SMALL
GASTEIGER

@<TRIPOS>ATOM
      1 C         140.5173  140.6872  164.3159 C.2     1  UNL1        0.0378
      2 C         139.9734  141.6818  163.3334 C.2     1  UNL1        0.1000
      3 N         141.0880  142.0804  162.4122 N.2     1  UNL1       -0.2461
      4 C         142.3208  141.3322  162.8253 C.2     1  UNL1        0.0811
      5 C         143.7190  141.3238  162.2821 C.3     1  UNL1        0.1346
      6 C         144.7644  140.4543  162.9154 C.2     1  UNL1       -0.0009
      7 C         144.4116  139.5933  164.0919 C.2     1  UNL1       -0.0025
      8 C         143.0135  139.6018  164.6351 C.2     1  UNL1        0.0011
      9 C         141.9681  140.4712  164.0018 C.2     1  UNL1        0.0184
     10 C         138.6114  138.4581  163.6844 C.3     1  UNL1        0.0342
     11 C         138.7930  138.9104  165.1030 C.ar    1  UNL1        0.0151
     12 C         138.0215  138.2482  166.2058 C.ar    1  UNL1        0.0990
     13 N         138.2030  138.7004  167.6244 N.ar    1  UNL1       -0.2123
     14 C         139.1560  139.8149  167.9402 C.ar    1  UNL1        0.2207
     15 N         139.9274  140.4772  166.8373 N.ar    1  UNL1       -0.2138
     16 C         139.7459  140.0250  165.4187 C.ar    1  UNL1        0.0832
     17 N         139.3375  140.2672  169.3589 N.pl3   1  UNL1       -0.2816
     18 H         138.7288  139.9420  170.0610 H       1  UNL1        0.1551
     19 C         140.4465  141.2151  169.7078 C.ar    1  UNL1        0.0642
     20 C         140.1799  142.6897  169.7732 C.ar    1  UNL1        0.0175
     21 C         141.2889  143.6376  170.1221 C.ar    1  UNL1        0.0219
     22 C         142.6644  143.1107  170.4056 C.ar    1  UNL1        0.0985
     23 N         142.9309  141.6360  170.3402 N.ar    1  UNL1       -0.2469
     24 C         141.8219  140.6882  169.9913 C.ar    1  UNL1        0.0728
     25 C         142.0885  139.2135  169.9259 C.3     1  UNL1        0.0534
     26 N         144.0717  142.1849  161.1055 N.am    1  UNL1       -0.2964
     27 C         143.6084  141.8029  159.7310 C.2     1  UNL1        0.2374
     28 O         142.7924  140.5599  159.5329 O.2     1  UNL1       -0.2736
     29 H         144.6073  143.0007  161.2355 H       1  UNL1        0.1501
     30 C         143.9611  142.6639  158.5544 C.3     1  UNL1        0.1349
     31 C         145.3225  142.5635  157.9328 C.3     1  UNL1        0.0272
     32 N         142.9523  143.6254  157.9994 N.3     1  UNL1       -0.2641
     33 C         142.8414  143.8233  156.5167 C.3     1  UNL1        0.0900
     34 C         141.8327  144.7848  155.9617 C.3     1  UNL1        0.0897
     35 N         140.9348  145.5483  156.8895 N.3     1  UNL1       -0.2691
     36 C         139.9260  146.5098  156.3345 C.3     1  UNL1        0.0897
     37 C         141.0457  145.3505  158.3722 C.3     1  UNL1        0.0897
     38 C         142.0544  144.3890  158.9272 C.3     1  UNL1        0.0900
@<TRIPOS>BOND
     1    10    11    1
     2    11    12   ar
     3    12    13   ar
     4    13    14   ar
     5    14    17    1
     6    17    19    1
     7    19    20   ar
     8    20    21   ar
     9    21    22   ar
    10    22    23   ar
    11    23    24   ar
    12    24    25    1
    13    14    15   ar
    14    15    16   ar
    15    16     1    1
    16     1     2    2
    17     2     3    1
    18     3     4    2
    19     4     5    1
    20     5    26    1
    21    26    27   am
    22    27    28    2
    23    27    30    1
    24    30    31    1
    25    30    32    1
    26    32    33    1
    27    33    34    1
    28    34    35    1
    29    35    36    1
    30    35    37    1
    31    37    38    1
    32     5     6    1
    33     6     7    2
    34     7     8    1
    35     8     9    2
    36    16    11   ar
    37     9     1    1
    38    24    19   ar
    39     9     4    1
    40    38    32    1
    41    17    18    1
    42    26    29    1
@<TRIPOS>MOLECULE
*****
 38 42 0 0 0
SMALL
GASTEIGER

@<TRIPOS>ATOM
      1 C         141.3484  143.7335  162.4577 C.2     1  UNL1        0.0378
      2 C         140.0686  144.5142  162.4074 C.2     1  UNL1        0.1000
      3 N         139.6848  144.6829  160.9672 N.2     1  UNL1       -0.2461
      4 C         140.7276  144.0065  160.1274 C.2     1  UNL1        0.0811
      5 C         140.8736  143.8490  158.6429 C.3     1  UNL1        0.1346
      6 C         142.0478  143.1048  158.0795 C.2     1  UNL1       -0.0009
      7 C         143.0759  142.5181  159.0007 C.2     1  UNL1       -0.0025
      8 C         142.9299  142.6755  160.4852 C.2     1  UNL1        0.0011
      9 C         141.7557  143.4197  161.0486 C.2     1  UNL1        0.0184
     10 C         143.9133  145.1129  163.1778 C.3     1  UNL1        0.0342
     11 C         143.3732  144.0260  164.0592 C.ar    1  UNL1        0.0151
     12 C         144.1155  143.6288  165.3007 C.ar    1  UNL1        0.0990
     13 N         143.5754  142.5420  166.1821 N.ar    1  UNL1       -0.2123
     14 C         142.2930  141.8523  165.8221 C.ar    1  UNL1        0.2207
     15 N         141.5507  142.2495  164.5806 N.ar    1  UNL1       -0.2138
     16 C         142.0907  143.3363  163.6992 C.ar    1  UNL1        0.0832
     17 N         141.7528  140.7653  166.7035 N.pl3   1  UNL1       -0.2816
     18 H         142.0530  140.6950  167.6385 H       1  UNL1        0.1551
     19 C         140.7553  139.7855  166.1604 C.ar    1  UNL1        0.0642
     20 C         139.2896  139.9977  166.3982 C.ar    1  UNL1        0.0175
     21 C         138.2921  139.0178  165.8551 C.ar    1  UNL1        0.0219
     22 C         138.7604  137.8259  165.0741 C.ar    1  UNL1        0.0985
     23 N         140.2262  137.6138  164.8363 N.ar    1  UNL1       -0.2469
     24 C         141.2237  138.5936  165.3794 C.ar    1  UNL1        0.0728
     25 C         142.6894  138.3815  165.1416 C.3     1  UNL1        0.0534
     26 N         139.8454  144.4358  157.7217 N.am    1  UNL1       -0.2964
     27 C         140.1719  145.6567  156.9137 C.2     1  UNL1        0.2374
     28 O         141.5266  146.2908  157.0269 O.2     1  UNL1       -0.2736
     29 H         138.9563  144.0196  157.6474 H       1  UNL1        0.1501
     30 C         139.1437  146.2435  155.9926 C.3     1  UNL1        0.1349
     31 C         138.1900  145.3445  155.2630 C.3     1  UNL1        0.0272
     32 N         139.0693  147.7294  155.8009 N.3     1  UNL1       -0.2641
     33 C         139.5717  148.3478  154.5300 C.3     1  UNL1        0.0900
     34 C         139.4973  149.8336  154.3383 C.3     1  UNL1        0.0897
     35 N         138.9204  150.7010  155.4175 N.3     1  UNL1       -0.2691
     36 C         138.8459  152.1869  155.2258 C.3     1  UNL1        0.0897
     37 C         138.4179  150.0827  156.6884 C.3     1  UNL1        0.0897
     38 C         138.4924  148.5968  156.8801 C.3     1  UNL1        0.0900
@<TRIPOS>BOND
     1    10    11    1
     2    11    12   ar
     3    12    13   ar
     4    13    14   ar
     5    14    17    1
     6    17    19    1
     7    19    20   ar
     8    20    21   ar
     9    21    22   ar
    10    22    23   ar
    11    23    24   ar
    12    24    25    1
    13    14    15   ar
    14    15    16   ar
    15    16     1    1
    16     1     2    2
    17     2     3    1
    18     3     4    2
    19     4     5    1
    20     5    26    1
    21    26    27   am
    22    27    28    2
    23    27    30    1
    24    30    31    1
    25    30    32    1
    26    32    33    1
    27    33    34    1
    28    34    35    1
    29    35    36    1
    30    35    37    1
    31    37    38    1
    32     5     6    1
    33     6     7    2
    34     7     8    1
    35     8     9    2
    36    16    11   ar
    37     9     1    1
    38    24    19   ar
    39     9     4    1
    40    38    32    1
    41    17    18    1
    42    26    29    1
@<TRIPOS>MOLECULE
*****
 38 42 0 0 0
SMALL
GASTEIGER

@<TRIPOS>ATOM
      1 C         141.2758  143.4255  162.1326 C.2     1  UNL1        0.0378
      2 C         140.0065  144.2248  162.1371 C.2     1  UNL1        0.1000
      3 N         139.6088  144.4713  160.7120 N.2     1  UNL1       -0.2461
      4 C         140.6324  143.8243  159.8266 C.2     1  UNL1        0.0811
      5 C         140.7594  143.7402  158.3344 C.3     1  UNL1        0.1346
      6 C         141.9166  143.0098  157.7201 C.2     1  UNL1       -0.0009
      7 C         142.9468  142.3634  158.5981 C.2     1  UNL1       -0.0025
      8 C         142.8198  142.4475  160.0903 C.2     1  UNL1        0.0011
      9 C         141.6626  143.1780  160.7046 C.2     1  UNL1        0.0184
     10 C         143.4906  145.1010  163.2671 C.3     1  UNL1        0.0342
     11 C         143.1339  143.7938  163.9107 C.ar    1  UNL1        0.0151
     12 C         143.8846  143.3245  165.1215 C.ar    1  UNL1        0.0990
     13 N         143.5279  142.0174  165.7651 N.ar    1  UNL1       -0.2123
     14 C         142.4205  141.1797  165.1978 C.ar    1  UNL1        0.2207
     15 N         141.6698  141.6490  163.9870 N.ar    1  UNL1       -0.2138
     16 C         142.0265  142.9561  163.3434 C.ar    1  UNL1        0.0832
     17 N         142.0638  139.8725  165.8414 N.pl3   1  UNL1       -0.2816
     18 H         142.1213  139.0370  165.3238 H       1  UNL1        0.1551
     19 C         141.6193  139.8383  167.2737 C.ar    1  UNL1        0.0642
     20 C         142.6342  139.7121  168.3710 C.ar    1  UNL1        0.0175
     21 C         142.1897  139.6779  169.8033 C.ar    1  UNL1        0.0219
     22 C         140.7305  139.7699  170.1381 C.ar    1  UNL1        0.0985
     23 N         139.7157  139.8961  169.0407 N.ar    1  UNL1       -0.2469
     24 C         140.1601  139.9303  167.6085 C.ar    1  UNL1        0.0728
     25 C         139.1453  140.0564  166.5111 C.3     1  UNL1        0.0534
     26 N         139.7291  144.3865  157.4564 N.am    1  UNL1       -0.2964
     27 C         140.0662  145.6375  156.7004 C.2     1  UNL1        0.2374
     28 O         141.4336  146.2421  156.8225 O.2     1  UNL1       -0.2736
     29 H         138.8317  143.9897  157.3763 H       1  UNL1        0.1501
     30 C         139.0360  146.2839  155.8225 C.3     1  UNL1        0.1349
     31 C         138.0277  145.4387  155.1020 C.3     1  UNL1        0.0272
     32 N         139.0141  147.7755  155.6649 N.3     1  UNL1       -0.2641
     33 C         138.4791  148.6384  156.7690 C.3     1  UNL1        0.0900
     34 C         138.4572  150.1300  156.6115 C.3     1  UNL1        0.0897
     35 N         138.9702  150.7585  155.3499 N.3     1  UNL1       -0.2691
     36 C         138.9482  152.2501  155.1924 C.3     1  UNL1        0.0897
     37 C         139.5051  149.8955  154.2458 C.3     1  UNL1        0.0897
     38 C         139.5270  148.4040  154.4033 C.3     1  UNL1        0.0900
@<TRIPOS>BOND
     1    10    11    1
     2    11    12   ar
     3    12    13   ar
     4    13    14   ar
     5    14    17    1
     6    17    19    1
     7    19    20   ar
     8    20    21   ar
     9    21    22   ar
    10    22    23   ar
    11    23    24   ar
    12    24    25    1
    13    14    15   ar
    14    15    16   ar
    15    16     1    1
    16     1     2    2
    17     2     3    1
    18     3     4    2
    19     4     5    1
    20     5    26    1
    21    26    27   am
    22    27    28    2
    23    27    30    1
    24    30    31    1
    25    30    32    1
    26    32    33    1
    27    33    34    1
    28    34    35    1
    29    35    36    1
    30    35    37    1
    31    37    38    1
    32     5     6    1
    33     6     7    2
    34     7     8    1
    35     8     9    2
    36    16    11   ar
    37     9     1    1
    38    24    19   ar
    39     9     4    1
    40    38    32    1
    41    17    18    1
    42    26    29    1
@<TRIPOS>MOLECULE
*****
 38 42 0 0 0
SMALL
GASTEIGER

@<TRIPOS>ATOM
      1 C         140.4186  143.6707  160.2396 C.2     1  UNL1        0.0378
      2 C         140.0935  144.1252  158.8476 C.2     1  UNL1        0.1000
      3 N         141.3276  143.9698  158.0092 N.2     1  UNL1       -0.2461
      4 C         142.4154  143.4193  158.8832 C.2     1  UNL1        0.0811
      5 C         143.8449  143.0624  158.6018 C.3     1  UNL1        0.1346
      6 C         144.7126  142.5207  159.6989 C.2     1  UNL1       -0.0009
      7 C         144.1508  142.3358  161.0773 C.2     1  UNL1       -0.0025
      8 C         142.7213  142.6927  161.3587 C.2     1  UNL1        0.0011
      9 C         141.8536  143.2344  160.2616 C.2     1  UNL1        0.0184
     10 C         139.9821  146.1641  161.8498 C.3     1  UNL1        0.0342
     11 C         139.2562  144.9019  162.2102 C.ar    1  UNL1        0.0151
     12 C         138.3121  144.8864  163.3757 C.ar    1  UNL1        0.0990
     13 N         137.5862  143.6242  163.7361 N.ar    1  UNL1       -0.2123
     14 C         137.8044  142.3775  162.9311 C.ar    1  UNL1        0.2207
     15 N         138.7485  142.3930  161.7656 N.ar    1  UNL1       -0.2138
     16 C         139.4745  143.6552  161.4051 C.ar    1  UNL1        0.0832
     17 N         137.0785  141.1153  163.2915 N.pl3   1  UNL1       -0.2816
     18 H         136.1008  141.0629  163.1878 H       1  UNL1        0.1551
     19 C         137.8421  139.9328  163.8099 C.ar    1  UNL1        0.0642
     20 C         138.2263  139.8645  165.2583 C.ar    1  UNL1        0.0175
     21 C         138.9900  138.6821  165.7767 C.ar    1  UNL1        0.0219
     22 C         139.3693  137.5681  164.8467 C.ar    1  UNL1        0.0985
     23 N         138.9851  137.6364  163.3984 N.ar    1  UNL1       -0.2469
     24 C         138.2215  138.8188  162.8799 C.ar    1  UNL1        0.0728
     25 C         137.8372  138.8871  161.4316 C.3     1  UNL1        0.0534
     26 N         144.4067  143.2473  157.2233 N.am    1  UNL1       -0.2964
     27 C         144.3364  142.1270  156.2283 C.2     1  UNL1        0.2374
     28 O         143.7044  140.8218  156.6118 O.2     1  UNL1       -0.2736
     29 H         144.8215  144.1039  156.9715 H       1  UNL1        0.1501
     30 C         144.8982  142.3118  154.8498 C.3     1  UNL1        0.1349
     31 C         143.9767  142.5455  153.6895 C.3     1  UNL1        0.0272
     32 N         146.3815  142.2630  154.6316 N.3     1  UNL1       -0.2641
     33 C         147.2898  141.8354  155.7461 C.3     1  UNL1        0.0900
     34 C         148.7730  141.7865  155.5279 C.3     1  UNL1        0.0897
     35 N         149.3479  142.1652  154.1952 N.3     1  UNL1       -0.2691
     36 C         150.8312  142.1164  153.9770 C.3     1  UNL1        0.0897
     37 C         148.4396  142.5928  153.0808 C.3     1  UNL1        0.0897
     38 C         146.9563  142.6417  153.2989 C.3     1  UNL1        0.0900
@<TRIPOS>BOND
     1    10    11    1
     2    11    12   ar
     3    12    13   ar
     4    13    14   ar
     5    14    17    1
     6    17    19    1
     7    19    20   ar
     8    20    21   ar
     9    21    22   ar
    10    22    23   ar
    11    23    24   ar
    12    24    25    1
    13    14    15   ar
    14    15    16   ar
    15    16     1    1
    16     1     2    2
    17     2     3    1
    18     3     4    2
    19     4     5    1
    20     5    26    1
    21    26    27   am
    22    27    28    2
    23    27    30    1
    24    30    31    1
    25    30    32    1
    26    32    33    1
    27    33    34    1
    28    34    35    1
    29    35    36    1
    30    35    37    1
    31    37    38    1
    32     5     6    1
    33     6     7    2
    34     7     8    1
    35     8     9    2
    36    16    11   ar
    37     9     1    1
    38    24    19   ar
    39     9     4    1
    40    38    32    1
    41    17    18    1
    42    26    29    1
@<TRIPOS>MOLECULE
*****
 38 42 0 0 0
SMALL
GASTEIGER

@<TRIPOS>ATOM
      1 C         141.9866  138.3425  160.0310 C.2     1  UNL1        0.0378
      2 C         142.8211  138.0368  161.2393 C.2     1  UNL1        0.1000
      3 N         141.9195  138.0392  162.4381 N.2     1  UNL1       -0.2461
      4 C         140.5277  138.3465  161.9706 C.2     1  UNL1        0.0811
      5 C         139.2279  138.4798  162.7074 C.3     1  UNL1        0.1346
      6 C         137.9697  138.8005  161.9565 C.2     1  UNL1       -0.0009
      7 C         138.0111  138.9880  160.4689 C.2     1  UNL1       -0.0025
      8 C         139.3109  138.8547  159.7321 C.2     1  UNL1        0.0011
      9 C         140.5692  138.5339  160.4829 C.2     1  UNL1        0.0184
     10 C         141.9472  140.9821  158.6058 C.3     1  UNL1        0.0342
     11 C         142.4627  139.7596  157.9061 C.ar    1  UNL1        0.0151
     12 C         142.9584  139.8569  156.4937 C.ar    1  UNL1        0.0990
     13 N         143.4739  138.6344  155.7939 N.ar    1  UNL1       -0.2123
     14 C         143.4936  137.3146  156.5064 C.ar    1  UNL1        0.2207
     15 N         142.9979  137.2174  157.9188 N.ar    1  UNL1       -0.2138
     16 C         142.4824  138.4398  158.6186 C.ar    1  UNL1        0.0832
     17 N         144.0092  136.0921  155.8066 N.pl3   1  UNL1       -0.2816
     18 H         144.9520  136.0457  155.5271 H       1  UNL1        0.1551
     19 C         143.0881  134.9402  155.5328 C.ar    1  UNL1        0.0642
     20 C         142.2345  134.9394  154.2994 C.ar    1  UNL1        0.0175
     21 C         141.3134  133.7875  154.0255 C.ar    1  UNL1        0.0219
     22 C         141.2461  132.6366  154.9851 C.ar    1  UNL1        0.0985
     23 N         142.0998  132.6375  156.2185 N.ar    1  UNL1       -0.2469
     24 C         143.0208  133.7893  156.4923 C.ar    1  UNL1        0.0728
     25 C         143.8745  133.7902  157.7257 C.3     1  UNL1        0.0534
     26 N         139.1865  138.2923  164.1951 N.am    1  UNL1       -0.2964
     27 C         138.7652  139.4259  165.0824 C.2     1  UNL1        0.2374
     28 O         138.3853  140.7470  164.4820 O.2     1  UNL1       -0.2736
     29 H         139.4359  137.4252  164.5891 H       1  UNL1        0.1501
     30 C         138.7238  139.2385  166.5700 C.3     1  UNL1        0.1349
     31 C         137.5662  138.5259  167.2043 C.3     1  UNL1        0.0272
     32 N         139.8399  139.7637  167.4235 N.3     1  UNL1       -0.2641
     33 C         141.2345  139.8326  166.8754 C.3     1  UNL1        0.0900
     34 C         142.3507  140.3578  167.7288 C.3     1  UNL1        0.0897
     35 N         142.0723  140.8139  169.1304 N.3     1  UNL1       -0.2691
     36 C         143.1885  141.3391  169.9839 C.3     1  UNL1        0.0897
     37 C         140.6777  140.7449  169.6785 C.3     1  UNL1        0.0897
     38 C         139.5615  140.2198  168.8251 C.3     1  UNL1        0.0900
@<TRIPOS>BOND
     1    10    11    1
     2    11    12   ar
     3    12    13   ar
     4    13    14   ar
     5    14    17    1
     6    17    19    1
     7    19    20   ar
     8    20    21   ar
     9    21    22   ar
    10    22    23   ar
    11    23    24   ar
    12    24    25    1
    13    14    15   ar
    14    15    16   ar
    15    16     1    1
    16     1     2    2
    17     2     3    1
    18     3     4    2
    19     4     5    1
    20     5    26    1
    21    26    27   am
    22    27    28    2
    23    27    30    1
    24    30    31    1
    25    30    32    1
    26    32    33    1
    27    33    34    1
    28    34    35    1
    29    35    36    1
    30    35    37    1
    31    37    38    1
    32     5     6    1
    33     6     7    2
    34     7     8    1
    35     8     9    2
    36    16    11   ar
    37     9     1    1
    38    24    19   ar
    39     9     4    1
    40    38    32    1
    41    17    18    1
    42    26    29    1
@<TRIPOS>MOLECULE
*****
 38 42 0 0 0
SMALL
GASTEIGER

@<TRIPOS>ATOM
      1 C         141.2642  138.9400  162.5929 C.2     1  UNL1        0.0378
      2 C         142.0567  137.6743  162.4520 C.2     1  UNL1        0.1000
      3 N         142.6203  137.6325  161.0625 N.2     1  UNL1       -0.2461
      4 C         142.1760  138.8725  160.3447 C.2     1  UNL1        0.0811
      5 C         142.4264  139.3701  158.9519 C.3     1  UNL1        0.1346
      6 C         141.8387  140.6757  158.5050 C.2     1  UNL1       -0.0009
      7 C         141.0006  141.4838  159.4508 C.2     1  UNL1       -0.0025
      8 C         140.7502  140.9862  160.8436 C.2     1  UNL1        0.0011
      9 C         141.3379  139.6805  161.2905 C.2     1  UNL1        0.0184
     10 C         138.5145  137.8828  163.1600 C.3     1  UNL1        0.0342
     11 C         139.1525  138.8582  164.1041 C.ar    1  UNL1        0.0151
     12 C         138.4156  139.3051  165.3319 C.ar    1  UNL1        0.0990
     13 N         139.0535  140.2805  166.2761 N.ar    1  UNL1       -0.2123
     14 C         140.4283  140.8091  165.9925 C.ar    1  UNL1        0.2207
     15 N         141.1652  140.3623  164.7648 N.ar    1  UNL1       -0.2138
     16 C         140.5273  139.3869  163.8206 C.ar    1  UNL1        0.0832
     17 N         141.0663  141.7846  166.9368 N.pl3   1  UNL1       -0.2816
     18 H         141.2258  142.7133  166.6516 H       1  UNL1        0.1551
     19 C         141.4611  141.3451  168.3155 C.ar    1  UNL1        0.0642
     20 C         142.1806  140.0435  168.5105 C.ar    1  UNL1        0.0175
     21 C         142.5754  139.6040  169.8893 C.ar    1  UNL1        0.0219
     22 C         142.2508  140.4662  171.0729 C.ar    1  UNL1        0.0985
     23 N         141.5314  141.7679  170.8779 N.ar    1  UNL1       -0.2469
     24 C         141.1366  142.2074  169.4992 C.ar    1  UNL1        0.0728
     25 C         140.4171  143.5091  169.3042 C.3     1  UNL1        0.0534
     26 N         143.2645  138.5619  158.0061 N.am    1  UNL1       -0.2964
     27 C         142.6150  137.5639  157.0939 C.2     1  UNL1        0.2374
     28 O         141.1274  137.3740  157.1275 O.2     1  UNL1       -0.2736
     29 H         144.2408  138.6866  157.9841 H       1  UNL1        0.1501
     30 C         143.4531  136.7558  156.1481 C.3     1  UNL1        0.1349
     31 C         144.5273  137.4224  155.3408 C.3     1  UNL1        0.0272
     32 N         143.2169  135.2809  156.0095 N.3     1  UNL1       -0.2641
     33 C         142.7661  134.7137  154.6961 C.3     1  UNL1        0.0900
     34 C         142.5300  133.2390  154.5575 C.3     1  UNL1        0.0897
     35 N         142.7446  132.3314  155.7323 N.3     1  UNL1       -0.2691
     36 C         142.5085  130.8565  155.5937 C.3     1  UNL1        0.0897
     37 C         143.1954  132.8986  157.0457 C.3     1  UNL1        0.0897
     38 C         143.4316  134.3733  157.1843 C.3     1  UNL1        0.0900
@<TRIPOS>BOND
     1    10    11    1
     2    11    12   ar
     3    12    13   ar
     4    13    14   ar
     5    14    17    1
     6    17    19    1
     7    19    20   ar
     8    20    21   ar
     9    21    22   ar
    10    22    23   ar
    11    23    24   ar
    12    24    25    1
    13    14    15   ar
    14    15    16   ar
    15    16     1    1
    16     1     2    2
    17     2     3    1
    18     3     4    2
    19     4     5    1
    20     5    26    1
    21    26    27   am
    22    27    28    2
    23    27    30    1
    24    30    31    1
    25    30    32    1
    26    32    33    1
    27    33    34    1
    28    34    35    1
    29    35    36    1
    30    35    37    1
    31    37    38    1
    32     5     6    1
    33     6     7    2
    34     7     8    1
    35     8     9    2
    36    16    11   ar
    37     9     1    1
    38    24    19   ar
    39     9     4    1
    40    38    32    1
    41    17    18    1
    42    26    29    1
@<TRIPOS>MOLECULE
*****
 38 42 0 0 0
SMALL
GASTEIGER

@<TRIPOS>ATOM
      1 C         140.7124  138.8268  162.5161 C.2     1  UNL1        0.0378
      2 C         141.7634  137.7795  162.2955 C.2     1  UNL1        0.1000
      3 N         141.8445  137.5072  160.8227 N.2     1  UNL1       -0.2461
      4 C         140.8435  138.3862  160.1330 C.2     1  UNL1        0.0811
      5 C         140.4788  138.5492  158.6872 C.3     1  UNL1        0.1346
      6 C         139.4145  139.5279  158.2880 C.2     1  UNL1       -0.0009
      7 C         138.7149  140.3434  159.3346 C.2     1  UNL1       -0.0025
      8 C         139.0796  140.1804  160.7804 C.2     1  UNL1        0.0011
      9 C         140.1439  139.2017  161.1796 C.2     1  UNL1        0.0184
     10 C         138.8118  137.3161  164.2783 C.3     1  UNL1        0.0342
     11 C         139.3517  138.6434  164.7217 C.ar    1  UNL1        0.0151
     12 C         138.9413  139.2154  166.0462 C.ar    1  UNL1        0.0990
     13 N         139.4811  140.5427  166.4897 N.ar    1  UNL1       -0.2123
     14 C         140.4315  141.2981  165.6086 C.ar    1  UNL1        0.2207
     15 N         140.8419  140.7261  164.2841 N.ar    1  UNL1       -0.2138
     16 C         140.3020  139.3988  163.8406 C.ar    1  UNL1        0.0832
     17 N         140.9714  142.6255  166.0521 N.pl3   1  UNL1       -0.2816
     18 H         140.7525  142.9718  166.9473 H       1  UNL1        0.1551
     19 C         141.8448  143.4253  165.1316 C.ar    1  UNL1        0.0642
     20 C         143.3228  143.1724  165.0921 C.ar    1  UNL1        0.0175
     21 C         144.1963  143.9722  164.1716 C.ar    1  UNL1        0.0219
     22 C         143.5917  145.0249  163.2905 C.ar    1  UNL1        0.0985
     23 N         142.1137  145.2778  163.3300 N.ar    1  UNL1       -0.2469
     24 C         141.2402  144.4780  164.2505 C.ar    1  UNL1        0.0728
     25 C         139.7622  144.7309  164.2900 C.3     1  UNL1        0.0534
     26 N         141.1784  137.7336  157.6406 N.am    1  UNL1       -0.2964
     27 C         142.6231  137.9918  157.3302 C.2     1  UNL1        0.2374
     28 O         143.3681  139.0657  158.0664 O.2     1  UNL1       -0.2736
     29 H         140.6895  137.0288  157.1574 H       1  UNL1        0.1501
     30 C         143.3227  137.1763  156.2837 C.3     1  UNL1        0.1349
     31 C         144.3330  137.8210  155.3817 C.3     1  UNL1        0.0272
     32 N         143.0121  135.7159  156.1391 N.3     1  UNL1       -0.2641
     33 C         143.4136  134.7534  157.2173 C.3     1  UNL1        0.0900
     34 C         143.1030  133.2931  157.0728 C.3     1  UNL1        0.0897
     35 N         142.3910  132.7952  155.8501 N.3     1  UNL1       -0.2691
     36 C         142.0804  131.3348  155.7055 C.3     1  UNL1        0.0897
     37 C         141.9895  133.7577  154.7719 C.3     1  UNL1        0.0897
     38 C         142.3001  135.2180  154.9164 C.3     1  UNL1        0.0900
@<TRIPOS>BOND
     1    10    11    1
     2    11    12   ar
     3    12    13   ar
     4    13    14   ar
     5    14    17    1
     6    17    19    1
     7    19    20   ar
     8    20    21   ar
     9    21    22   ar
    10    22    23   ar
    11    23    24   ar
    12    24    25    1
    13    14    15   ar
    14    15    16   ar
    15    16     1    1
    16     1     2    2
    17     2     3    1
    18     3     4    2
    19     4     5    1
    20     5    26    1
    21    26    27   am
    22    27    28    2
    23    27    30    1
    24    30    31    1
    25    30    32    1
    26    32    33    1
    27    33    34    1
    28    34    35    1
    29    35    36    1
    30    35    37    1
    31    37    38    1
    32     5     6    1
    33     6     7    2
    34     7     8    1
    35     8     9    2
    36    16    11   ar
    37     9     1    1
    38    24    19   ar
    39     9     4    1
    40    38    32    1
    41    17    18    1
    42    26    29    1
@<TRIPOS>MOLECULE
*****
 38 42 0 0 0
SMALL
GASTEIGER

@<TRIPOS>ATOM
      1 C         141.8693  138.9634  158.9801 C.2     1  UNL1        0.0378
      2 C         140.4174  138.7815  159.3100 C.2     1  UNL1        0.1000
      3 N         140.2203  139.1467  160.7514 N.2     1  UNL1       -0.2461
      4 C         141.5505  139.5543  161.3123 C.2     1  UNL1        0.0811
      5 C         141.9654  140.0140  162.6786 C.3     1  UNL1        0.1346
      6 C         143.3993  140.3603  162.9501 C.2     1  UNL1       -0.0009
      7 C         144.4184  140.2470  161.8553 C.2     1  UNL1       -0.0025
      8 C         144.0036  139.7873  160.4891 C.2     1  UNL1        0.0011
      9 C         142.5696  139.4410  160.2176 C.2     1  UNL1        0.0184
     10 C         142.0573  141.1778  156.9648 C.3     1  UNL1        0.0342
     11 C         142.6027  139.8190  156.6391 C.ar    1  UNL1        0.0151
     12 C         143.2421  139.5674  155.3058 C.ar    1  UNL1        0.0990
     13 N         143.7876  138.2087  154.9799 N.ar    1  UNL1       -0.2123
     14 C         143.6937  137.1015  155.9875 C.ar    1  UNL1        0.2207
     15 N         143.0543  137.3531  157.3209 N.ar    1  UNL1       -0.2138
     16 C         142.5088  138.7118  157.6467 C.ar    1  UNL1        0.0832
     17 N         144.2392  135.7426  155.6617 N.pl3   1  UNL1       -0.2816
     18 H         145.2104  135.6117  155.5675 H       1  UNL1        0.1551
     19 C         143.3049  134.5833  155.4796 C.ar    1  UNL1        0.0642
     20 C         142.5397  134.4309  154.1986 C.ar    1  UNL1        0.0175
     21 C         141.6054  133.2716  154.0164 C.ar    1  UNL1        0.0219
     22 C         141.4365  132.2647  155.1154 C.ar    1  UNL1        0.0985
     23 N         142.2018  132.4172  156.3964 N.ar    1  UNL1       -0.2469
     24 C         143.1360  133.5765  156.5786 C.ar    1  UNL1        0.0728
     25 C         143.9013  133.7289  157.8596 C.3     1  UNL1        0.0534
     26 N         140.9461  140.1273  163.7733 N.am    1  UNL1       -0.2964
     27 C         140.8565  139.0640  164.8275 C.2     1  UNL1        0.2374
     28 O         141.7860  137.8873  164.7869 O.2     1  UNL1       -0.2736
     29 H         140.3361  140.8996  163.8000 H       1  UNL1        0.1501
     30 C         139.8373  139.1772  165.9223 C.3     1  UNL1        0.1349
     31 C         138.4552  138.6307  165.7198 C.3     1  UNL1        0.0272
     32 N         140.2003  139.8371  167.2195 N.3     1  UNL1       -0.2641
     33 C         141.5678  140.4249  167.4051 C.3     1  UNL1        0.0900
     34 C         141.9308  141.0848  168.7024 C.3     1  UNL1        0.0897
     35 N         140.9263  141.1568  169.8140 N.3     1  UNL1       -0.2691
     36 C         141.2892  141.8167  171.1113 C.3     1  UNL1        0.0897
     37 C         139.5588  140.5690  169.6284 C.3     1  UNL1        0.0897
     38 C         139.1958  139.9092  168.3312 C.3     1  UNL1        0.0900
@<TRIPOS>BOND
     1    10    11    1
     2    11    12   ar
     3    12    13   ar
     4    13    14   ar
     5    14    17    1
     6    17    19    1
     7    19    20   ar
     8    20    21   ar
     9    21    22   ar
    10    22    23   ar
    11    23    24   ar
    12    24    25    1
    13    14    15   ar
    14    15    16   ar
    15    16     1    1
    16     1     2    2
    17     2     3    1
    18     3     4    2
    19     4     5    1
    20     5    26    1
    21    26    27   am
    22    27    28    2
    23    27    30    1
    24    30    31    1
    25    30    32    1
    26    32    33    1
    27    33    34    1
    28    34    35    1
    29    35    36    1
    30    35    37    1
    31    37    38    1
    32     5     6    1
    33     6     7    2
    34     7     8    1
    35     8     9    2
    36    16    11   ar
    37     9     1    1
    38    24    19   ar
    39     9     4    1
    40    38    32    1
    41    17    18    1
    42    26    29    1
