@<TRIPOS>MOLECULE
*****
 32 35 0 0 0
SMALL
GASTEIGER

@<TRIPOS>ATOM
      1 C         140.4389  142.2072  164.5102 C.3     1  UNL1        0.2136
      2 O         141.0296  140.8848  164.1202 O.3     1  UNL1       -0.3715
      3 H         141.5592  140.9922  163.3147 H       1  UNL1        0.2114
      4 C         140.5828  142.6884  163.0968 C.ar    1  UNL1        0.0138
      5 C         139.3834  143.1927  162.3504 C.ar    1  UNL1        0.0001
      6 C         139.5273  143.6739  160.9370 C.ar    1  UNL1        0.0190
      7 C         140.8707  143.6508  160.2700 C.ar    1  UNL1        0.0843
      8 C         142.0701  143.1465  161.0164 C.ar    1  UNL1        0.0384
      9 C         143.2573  143.2422  160.1047 C.ar    1  UNL1        0.1220
     10 N         142.7917  143.8056  158.7948 N.ar    1  UNL1       -0.1635
     11 N         141.3167  144.0582  158.8969 N.ar    1  UNL1       -0.2296
     12 C         141.9261  142.6653  162.4298 C.ar    1  UNL1        0.0017
     13 C         140.4413  144.6196  157.8160 C.ar    1  UNL1        0.0829
     14 C         140.4562  146.0915  157.5276 C.ar    1  UNL1        0.0215
     15 C         139.5808  146.6528  156.4466 C.ar    1  UNL1        0.0312
     16 C         138.6905  145.7422  155.6539 C.ar    1  UNL1        0.1402
     17 F         137.8151  146.3035  154.5730 F       1  UNL1       -0.2042
     18 C         138.6756  144.2702  155.9423 C.ar    1  UNL1        0.0312
     19 C         139.5510  143.7090  157.0233 C.ar    1  UNL1        0.0215
     20 C         140.7891  142.0100  168.4584 C.ar    1  UNL1        0.0956
     21 C         140.9330  142.4912  167.0450 C.ar    1  UNL1        0.0111
     22 C         140.2949  141.7260  165.9236 C.ar    1  UNL1        0.0145
     23 C         139.5129  140.4798  166.2157 C.ar    1  UNL1        0.0009
     24 C         139.3690  139.9986  167.6292 C.ar    1  UNL1        0.0301
     25 C         140.0071  140.7637  168.7505 C.ar    1  UNL1        0.1496
     26 F         139.8632  140.2826  170.1639 F       1  UNL1       -0.2035
     27 N         142.0653  143.5402  170.7012 N.1     1  UNL1       -0.1908
     28 C         141.4272  142.7751  169.5798 C.1     1  UNL1        0.1027
     29 C         139.8481  143.5296  164.9003 C.3     1  UNL1        0.4267
     30 F         139.2573  144.8521  165.2903 F       1  UNL1       -0.1670
     31 F         138.4163  143.2096  165.2124 F       1  UNL1       -0.1670
     32 F         140.9939  144.4897  164.7769 F       1  UNL1       -0.1670
@<TRIPOS>BOND
     1    27    28    3
     2    28    20    1
     3    20    21   ar
     4    21    22   ar
     5    22     1    1
     6     1     2    1
     7     1     4    1
     8     4     5   ar
     9     5     6   ar
    10     6     7   ar
    11     7     8   ar
    12     8     9   ar
    13     9    10   ar
    14    10    11   ar
    15    11    13    1
    16    13    14   ar
    17    14    15   ar
    18    15    16   ar
    19    16    17    1
    20    16    18   ar
    21    18    19   ar
    22     8    12   ar
    23     1    29    1
    24    29    30    1
    25    29    31    1
    26    29    32    1
    27    22    23   ar
    28    23    24   ar
    29    24    25   ar
    30    25    26    1
    31    25    20   ar
    32    12     4   ar
    33    11     7   ar
    34    19    13   ar
    35     2     3    1
@<TRIPOS>MOLECULE
*****
 32 35 0 0 0
SMALL
GASTEIGER

@<TRIPOS>ATOM
      1 C         142.7973  139.5098  161.3892 C.3     1  UNL1        0.2136
      2 O         144.2489  139.8592  161.5330 O.3     1  UNL1       -0.3715
      3 H         144.5370  139.6768  162.4411 H       1  UNL1        0.2114
      4 C         142.6153  139.6560  162.8710 C.ar    1  UNL1        0.0138
      5 C         141.6798  140.6959  163.4127 C.ar    1  UNL1        0.0001
      6 C         141.4978  140.8421  164.8944 C.ar    1  UNL1        0.0190
      7 C         142.2514  139.9484  165.8344 C.ar    1  UNL1        0.0843
      8 C         143.1869  138.9086  165.2926 C.ar    1  UNL1        0.0384
      9 C         143.7898  138.1768  166.4550 C.ar    1  UNL1        0.1220
     10 N         143.2269  138.7644  167.7151 N.ar    1  UNL1       -0.1635
     11 N         142.2761  139.8593  167.3316 N.ar    1  UNL1       -0.2296
     12 C         143.3688  138.7624  163.8109 C.ar    1  UNL1        0.0017
     13 C         141.4884  140.7149  168.2789 C.ar    1  UNL1        0.0829
     14 C         140.2612  140.1646  168.9430 C.ar    1  UNL1        0.0215
     15 C         139.4735  141.0203  169.8903 C.ar    1  UNL1        0.0312
     16 C         139.9129  142.4262  170.1734 C.ar    1  UNL1        0.1402
     17 F         139.1251  143.2819  171.1206 F       1  UNL1       -0.2042
     18 C         141.1401  142.9766  169.5092 C.ar    1  UNL1        0.0312
     19 C         141.9278  142.1209  168.5619 C.ar    1  UNL1        0.0215
     20 C         142.8410  137.9140  157.7558 C.ar    1  UNL1        0.0956
     21 C         142.6590  138.0602  159.2375 C.ar    1  UNL1        0.0111
     22 C         142.9792  139.3636  159.9075 C.ar    1  UNL1        0.0145
     23 C         143.4813  140.5207  159.0957 C.ar    1  UNL1        0.0009
     24 C         143.6633  140.3744  157.6139 C.ar    1  UNL1        0.0301
     25 C         143.3431  139.0711  156.9440 C.ar    1  UNL1        0.1496
     26 F         143.5250  138.9249  155.4623 F       1  UNL1       -0.2035
     27 N         142.2006  135.3073  156.4160 N.1     1  UNL1       -0.1908
     28 C         142.5208  136.6107  157.0859 C.1     1  UNL1        0.1027
     29 C         141.3457  139.1604  161.2454 C.3     1  UNL1        0.4267
     30 F         139.8940  138.8110  161.1017 F       1  UNL1       -0.1670
     31 F         141.2323  137.8092  161.8867 F       1  UNL1       -0.1670
     32 F         140.7564  140.3426  160.5346 F       1  UNL1       -0.1670
@<TRIPOS>BOND
     1    27    28    3
     2    28    20    1
     3    20    21   ar
     4    21    22   ar
     5    22     1    1
     6     1     2    1
     7     1     4    1
     8     4     5   ar
     9     5     6   ar
    10     6     7   ar
    11     7     8   ar
    12     8     9   ar
    13     9    10   ar
    14    10    11   ar
    15    11    13    1
    16    13    14   ar
    17    14    15   ar
    18    15    16   ar
    19    16    17    1
    20    16    18   ar
    21    18    19   ar
    22     8    12   ar
    23     1    29    1
    24    29    30    1
    25    29    31    1
    26    29    32    1
    27    22    23   ar
    28    23    24   ar
    29    24    25   ar
    30    25    26    1
    31    25    20   ar
    32    12     4   ar
    33    11     7   ar
    34    19    13   ar
    35     2     3    1
@<TRIPOS>MOLECULE
*****
 32 35 0 0 0
SMALL
GASTEIGER

@<TRIPOS>ATOM
      1 C         142.5450  141.6857  164.6421 C.3     1  UNL1        0.2136
      2 O         141.2820  140.8994  164.4514 O.3     1  UNL1       -0.3715
      3 H         141.1494  140.7249  163.5064 H       1  UNL1        0.2114
      4 C         142.4583  142.1689  163.2246 C.ar    1  UNL1        0.0138
      5 C         141.2011  142.8206  162.7300 C.ar    1  UNL1        0.0001
      6 C         141.1144  143.3037  161.3126 C.ar    1  UNL1        0.0190
      7 C         142.2850  143.1352  160.3899 C.ar    1  UNL1        0.0843
      8 C         143.5422  142.4835  160.8845 C.ar    1  UNL1        0.0384
      9 C         144.5258  142.4549  159.7524 C.ar    1  UNL1        0.1220
     10 N         143.8765  143.0890  158.5581 N.ar    1  UNL1       -0.1635
     11 N         142.4916  143.5094  158.9520 N.ar    1  UNL1       -0.2296
     12 C         143.6288  142.0004  162.3019 C.ar    1  UNL1        0.0017
     13 C         141.4892  144.1853  158.0641 C.ar    1  UNL1        0.0829
     14 C         140.3222  143.4119  157.5258 C.ar    1  UNL1        0.0215
     15 C         139.3199  144.0879  156.6378 C.ar    1  UNL1        0.0312
     16 C         139.4846  145.5373  156.2882 C.ar    1  UNL1        0.1402
     17 F         138.4823  146.2132  155.4003 F       1  UNL1       -0.2042
     18 C         140.6517  146.3107  156.8265 C.ar    1  UNL1        0.0312
     19 C         141.6540  145.6347  157.7145 C.ar    1  UNL1        0.0215
     20 C         142.8276  141.7071  168.6006 C.ar    1  UNL1        0.0956
     21 C         142.7408  142.1903  167.1832 C.ar    1  UNL1        0.0111
     22 C         142.6318  141.2026  166.0595 C.ar    1  UNL1        0.0145
     23 C         142.6094  139.7318  166.3532 C.ar    1  UNL1        0.0009
     24 C         142.6962  139.2487  167.7707 C.ar    1  UNL1        0.0301
     25 C         142.8053  140.2363  168.8943 C.ar    1  UNL1        0.1496
     26 F         142.8920  139.7532  170.3117 F       1  UNL1       -0.2035
     27 N         143.0457  143.6824  170.8479 N.1     1  UNL1       -0.1908
     28 C         142.9367  142.6948  169.7242 C.1     1  UNL1        0.1027
     29 C         143.8080  142.4720  164.8328 C.3     1  UNL1        0.4267
     30 F         145.0711  143.2584  165.0235 F       1  UNL1       -0.1670
     31 F         144.8788  141.4248  164.9149 F       1  UNL1       -0.1670
     32 F         143.3486  143.8999  164.8431 F       1  UNL1       -0.1670
@<TRIPOS>BOND
     1    27    28    3
     2    28    20    1
     3    20    21   ar
     4    21    22   ar
     5    22     1    1
     6     1     2    1
     7     1     4    1
     8     4     5   ar
     9     5     6   ar
    10     6     7   ar
    11     7     8   ar
    12     8     9   ar
    13     9    10   ar
    14    10    11   ar
    15    11    13    1
    16    13    14   ar
    17    14    15   ar
    18    15    16   ar
    19    16    17    1
    20    16    18   ar
    21    18    19   ar
    22     8    12   ar
    23     1    29    1
    24    29    30    1
    25    29    31    1
    26    29    32    1
    27    22    23   ar
    28    23    24   ar
    29    24    25   ar
    30    25    26    1
    31    25    20   ar
    32    12     4   ar
    33    11     7   ar
    34    19    13   ar
    35     2     3    1
@<TRIPOS>MOLECULE
*****
 32 35 0 0 0
SMALL
GASTEIGER

@<TRIPOS>ATOM
      1 C         141.0346  141.8355  165.1077 C.3     1  UNL1        0.2136
      2 O         142.0745  142.8269  165.5383 O.3     1  UNL1       -0.3715
      3 H         141.9510  143.6570  165.0518 H       1  UNL1        0.2114
      4 C         140.8610  142.5785  163.8162 C.ar    1  UNL1        0.0138
      5 C         141.3002  141.9524  162.5258 C.ar    1  UNL1        0.0001
      6 C         141.1266  142.6954  161.2344 C.ar    1  UNL1        0.0190
      7 C         140.5137  144.0644  161.2334 C.ar    1  UNL1        0.0843
      8 C         140.0744  144.6905  162.5237 C.ar    1  UNL1        0.0384
      9 C         139.5068  146.0437  162.2127 C.ar    1  UNL1        0.1220
     10 N         139.5953  146.2539  160.7301 N.ar    1  UNL1       -0.1635
     11 N         140.2176  145.0307  160.1248 N.ar    1  UNL1       -0.2296
     12 C         140.2481  143.9475  163.8151 C.ar    1  UNL1        0.0017
     13 C         140.4950  144.8120  158.6670 C.ar    1  UNL1        0.0829
     14 C         139.7650  143.7371  157.9176 C.ar    1  UNL1        0.0215
     15 C         140.0426  143.5185  156.4598 C.ar    1  UNL1        0.0312
     16 C         141.0500  144.3748  155.7515 C.ar    1  UNL1        0.1402
     17 F         141.3274  144.1562  154.2937 F       1  UNL1       -0.2042
     18 C         141.7800  145.4498  156.5009 C.ar    1  UNL1        0.0312
     19 C         141.5024  145.6684  157.9587 C.ar    1  UNL1        0.0215
     20 C         140.2288  140.2182  168.6411 C.ar    1  UNL1        0.0956
     21 C         140.0552  140.9612  167.3497 C.ar    1  UNL1        0.0111
     22 C         141.2082  141.0925  166.3991 C.ar    1  UNL1        0.0145
     23 C         142.5347  140.4808  166.7400 C.ar    1  UNL1        0.0009
     24 C         142.7082  139.7377  168.0315 C.ar    1  UNL1        0.0301
     25 C         141.5553  139.6065  168.9820 C.ar    1  UNL1        0.1496
     26 F         141.7289  138.8635  170.2734 F       1  UNL1       -0.2035
     27 N         137.9229  139.9556  170.5421 N.1     1  UNL1       -0.1908
     28 C         139.0759  140.0869  169.5916 C.1     1  UNL1        0.1027
     29 C         139.9947  140.8440  164.6770 C.3     1  UNL1        0.4267
     30 F         138.9548  139.8524  164.2463 F       1  UNL1       -0.1670
     31 F         138.7121  141.6205  164.7217 F       1  UNL1       -0.1670
     32 F         140.7739  139.5875  164.4238 F       1  UNL1       -0.1670
@<TRIPOS>BOND
     1    27    28    3
     2    28    20    1
     3    20    21   ar
     4    21    22   ar
     5    22     1    1
     6     1     2    1
     7     1     4    1
     8     4     5   ar
     9     5     6   ar
    10     6     7   ar
    11     7     8   ar
    12     8     9   ar
    13     9    10   ar
    14    10    11   ar
    15    11    13    1
    16    13    14   ar
    17    14    15   ar
    18    15    16   ar
    19    16    17    1
    20    16    18   ar
    21    18    19   ar
    22     8    12   ar
    23     1    29    1
    24    29    30    1
    25    29    31    1
    26    29    32    1
    27    22    23   ar
    28    23    24   ar
    29    24    25   ar
    30    25    26    1
    31    25    20   ar
    32    12     4   ar
    33    11     7   ar
    34    19    13   ar
    35     2     3    1
@<TRIPOS>MOLECULE
*****
 32 35 0 0 0
SMALL
GASTEIGER

@<TRIPOS>ATOM
      1 C         140.2086  139.7512  164.5042 C.3     1  UNL1        0.2136
      2 O         140.2547  141.2212  164.2097 O.3     1  UNL1       -0.3715
      3 H         139.8976  141.3847  163.3227 H       1  UNL1        0.2114
      4 C         140.1805  139.4574  163.0334 C.ar    1  UNL1        0.0138
      5 C         141.2531  138.6089  162.4175 C.ar    1  UNL1        0.0001
      6 C         141.2248  138.3151  160.9468 C.ar    1  UNL1        0.0190
      7 C         140.1240  138.8699  160.0921 C.ar    1  UNL1        0.0843
      8 C         139.0515  139.7184  160.7081 C.ar    1  UNL1        0.0384
      9 C         138.1001  140.1240  159.6216 C.ar    1  UNL1        0.1220
     10 N         138.5847  139.5261  158.3341 N.ar    1  UNL1       -0.1635
     11 N         139.8356  138.7510  158.6249 N.ar    1  UNL1       -0.2296
     12 C         139.0797  140.0122  162.1788 C.ar    1  UNL1        0.0017
     13 C         140.6543  137.9905  157.6242 C.ar    1  UNL1        0.0829
     14 C         139.9789  137.2682  156.4963 C.ar    1  UNL1        0.0215
     15 C         140.7976  136.5078  155.4957 C.ar    1  UNL1        0.0312
     16 C         142.2917  136.4696  155.6228 C.ar    1  UNL1        0.1402
     17 F         143.1104  135.7092  154.6221 F       1  UNL1       -0.2042
     18 C         142.9672  137.1920  156.7507 C.ar    1  UNL1        0.0312
     19 C         142.1484  137.9524  157.7513 C.ar    1  UNL1        0.0215
     20 C         141.4202  141.0898  168.0383 C.ar    1  UNL1        0.0956
     21 C         141.3920  140.7960  166.5677 C.ar    1  UNL1        0.0111
     22 C         140.2368  140.0449  165.9748 C.ar    1  UNL1        0.0145
     23 C         139.1098  139.5875  166.8527 C.ar    1  UNL1        0.0009
     24 C         139.1380  139.8813  168.3235 C.ar    1  UNL1        0.0301
     25 C         140.2932  140.6324  168.9162 C.ar    1  UNL1        0.1496
     26 F         140.3214  140.9261  170.3869 F       1  UNL1       -0.2035
     27 N         143.7306  142.5920  169.2239 N.1     1  UNL1       -0.1908
     28 C         142.5754  141.8409  168.6311 C.1     1  UNL1        0.1027
     29 C         140.1626  138.2811  164.7987 C.3     1  UNL1        0.4267
     30 F         140.1166  136.8110  165.0932 F       1  UNL1       -0.1670
     31 F         138.7815  137.8704  164.3817 F       1  UNL1       -0.1670
     32 F         141.5214  137.9802  165.3582 F       1  UNL1       -0.1670
@<TRIPOS>BOND
     1    27    28    3
     2    28    20    1
     3    20    21   ar
     4    21    22   ar
     5    22     1    1
     6     1     2    1
     7     1     4    1
     8     4     5   ar
     9     5     6   ar
    10     6     7   ar
    11     7     8   ar
    12     8     9   ar
    13     9    10   ar
    14    10    11   ar
    15    11    13    1
    16    13    14   ar
    17    14    15   ar
    18    15    16   ar
    19    16    17    1
    20    16    18   ar
    21    18    19   ar
    22     8    12   ar
    23     1    29    1
    24    29    30    1
    25    29    31    1
    26    29    32    1
    27    22    23   ar
    28    23    24   ar
    29    24    25   ar
    30    25    26    1
    31    25    20   ar
    32    12     4   ar
    33    11     7   ar
    34    19    13   ar
    35     2     3    1
@<TRIPOS>MOLECULE
*****
 32 35 0 0 0
SMALL
GASTEIGER

@<TRIPOS>ATOM
      1 C         140.7655  139.3323  164.4725 C.3     1  UNL1        0.2136
      2 O         140.5400  140.7921  164.2114 O.3     1  UNL1       -0.3715
      3 H         140.3336  140.9246  163.2729 H       1  UNL1        0.2114
      4 C         141.0876  139.1227  163.0225 C.ar    1  UNL1        0.0138
      5 C         140.1167  138.4015  162.1352 C.ar    1  UNL1        0.0001
      6 C         140.4388  138.1919  160.6853 C.ar    1  UNL1        0.0190
      7 C         141.7318  138.7035  160.1227 C.ar    1  UNL1        0.0843
      8 C         142.7026  139.4247  161.0100 C.ar    1  UNL1        0.0384
      9 C         143.8894  139.8133  160.1790 C.ar    1  UNL1        0.1220
     10 N         143.6521  139.3324  158.7782 N.ar    1  UNL1       -0.1635
     11 N         142.3186  138.6464  158.7433 N.ar    1  UNL1       -0.2296
     12 C         142.3805  139.6343  162.4599 C.ar    1  UNL1        0.0017
     13 C         141.6833  138.0144  157.5404 C.ar    1  UNL1        0.0829
     14 C         140.4646  138.6340  156.9232 C.ar    1  UNL1        0.0215
     15 C         139.8295  138.0019  155.7203 C.ar    1  UNL1        0.0312
     16 C         140.4130  136.7503  155.1346 C.ar    1  UNL1        0.1402
     17 F         139.7778  136.1183  153.9317 F       1  UNL1       -0.2042
     18 C         141.6317  136.1307  155.7518 C.ar    1  UNL1        0.0312
     19 C         142.2668  136.7628  156.9547 C.ar    1  UNL1        0.0215
     20 C         141.2282  139.9447  168.3662 C.ar    1  UNL1        0.0956
     21 C         141.5503  139.7351  166.9163 C.ar    1  UNL1        0.0111
     22 C         140.4434  139.5419  165.9224 C.ar    1  UNL1        0.0145
     23 C         139.0146  139.5583  166.3786 C.ar    1  UNL1        0.0009
     24 C         138.6925  139.7679  167.8286 C.ar    1  UNL1        0.0301
     25 C         139.7994  139.9611  168.8223 C.ar    1  UNL1        0.1496
     26 F         139.4773  140.1706  170.2722 F       1  UNL1       -0.2035
     27 N         143.4419  140.3310  170.3537 N.1     1  UNL1       -0.1908
     28 C         142.3350  140.1379  169.3599 C.1     1  UNL1        0.1027
     29 C         140.9910  137.8726  164.7336 C.3     1  UNL1        0.4267
     30 F         141.2164  136.4127  164.9947 F       1  UNL1       -0.1670
     31 F         142.4843  137.7379  164.7767 F       1  UNL1       -0.1670
     32 F         139.6068  137.3006  164.8168 F       1  UNL1       -0.1670
@<TRIPOS>BOND
     1    27    28    3
     2    28    20    1
     3    20    21   ar
     4    21    22   ar
     5    22     1    1
     6     1     2    1
     7     1     4    1
     8     4     5   ar
     9     5     6   ar
    10     6     7   ar
    11     7     8   ar
    12     8     9   ar
    13     9    10   ar
    14    10    11   ar
    15    11    13    1
    16    13    14   ar
    17    14    15   ar
    18    15    16   ar
    19    16    17    1
    20    16    18   ar
    21    18    19   ar
    22     8    12   ar
    23     1    29    1
    24    29    30    1
    25    29    31    1
    26    29    32    1
    27    22    23   ar
    28    23    24   ar
    29    24    25   ar
    30    25    26    1
    31    25    20   ar
    32    12     4   ar
    33    11     7   ar
    34    19    13   ar
    35     2     3    1
@<TRIPOS>MOLECULE
*****
 32 35 0 0 0
SMALL
GASTEIGER

@<TRIPOS>ATOM
      1 C         141.3448  139.0664  161.2644 C.3     1  UNL1        0.2136
      2 O         140.9935  137.6356  161.5459 O.3     1  UNL1       -0.3715
      3 H         140.6273  137.5626  162.4412 H       1  UNL1        0.2114
      4 C         141.4344  139.3343  162.7377 C.ar    1  UNL1        0.0138
      5 C         140.5128  140.3306  163.3763 C.ar    1  UNL1        0.0001
      6 C         140.6025  140.5984  164.8494 C.ar    1  UNL1        0.0190
      7 C         141.6139  139.8699  165.6839 C.ar    1  UNL1        0.0843
      8 C         142.5355  138.8736  165.0453 C.ar    1  UNL1        0.0384
      9 C         143.4249  138.3128  166.1151 C.ar    1  UNL1        0.1220
     10 N         143.0529  138.9625  167.4150 N.ar    1  UNL1       -0.1635
     11 N         141.9336  139.9249  167.1485 N.ar    1  UNL1       -0.2296
     12 C         142.4458  138.6058  163.5722 C.ar    1  UNL1        0.0017
     13 C         141.2535  140.7903  168.1675 C.ar    1  UNL1        0.0829
     14 C         141.6520  142.2287  168.3159 C.ar    1  UNL1        0.0215
     15 C         140.9718  143.0940  169.3350 C.ar    1  UNL1        0.0312
     16 C         139.8932  142.5210  170.2057 C.ar    1  UNL1        0.1402
     17 F         139.2130  143.3864  171.2247 F       1  UNL1       -0.2042
     18 C         139.4946  141.0825  170.0573 C.ar    1  UNL1        0.0312
     19 C         140.1748  140.2172  169.0382 C.ar    1  UNL1        0.0215
     20 C         142.3850  138.6671  157.4555 C.ar    1  UNL1        0.0956
     21 C         142.4747  138.9349  158.9286 C.ar    1  UNL1        0.0111
     22 C         141.2551  138.7986  159.7913 C.ar    1  UNL1        0.0145
     23 C         139.9460  138.3945  159.1808 C.ar    1  UNL1        0.0009
     24 C         139.8563  138.1267  157.7075 C.ar    1  UNL1        0.0301
     25 C         141.0759  138.2630  156.8449 C.ar    1  UNL1        0.1496
     26 F         140.9862  137.9951  155.3718 F       1  UNL1       -0.2035
     27 N         144.8242  138.9397  155.7302 N.1     1  UNL1       -0.1908
     28 C         143.6046  138.8034  156.5929 C.1     1  UNL1        0.1027
     29 C         141.6961  140.4972  160.9830 C.3     1  UNL1        0.4267
     30 F         142.0474  141.9281  160.7015 F       1  UNL1       -0.1670
     31 F         140.4443  141.0675  160.3849 F       1  UNL1       -0.1670
     32 F         143.1179  140.6195  161.4448 F       1  UNL1       -0.1670
@<TRIPOS>BOND
     1    27    28    3
     2    28    20    1
     3    20    21   ar
     4    21    22   ar
     5    22     1    1
     6     1     2    1
     7     1     4    1
     8     4     5   ar
     9     5     6   ar
    10     6     7   ar
    11     7     8   ar
    12     8     9   ar
    13     9    10   ar
    14    10    11   ar
    15    11    13    1
    16    13    14   ar
    17    14    15   ar
    18    15    16   ar
    19    16    17    1
    20    16    18   ar
    21    18    19   ar
    22     8    12   ar
    23     1    29    1
    24    29    30    1
    25    29    31    1
    26    29    32    1
    27    22    23   ar
    28    23    24   ar
    29    24    25   ar
    30    25    26    1
    31    25    20   ar
    32    12     4   ar
    33    11     7   ar
    34    19    13   ar
    35     2     3    1
@<TRIPOS>MOLECULE
*****
 32 35 0 0 0
SMALL
GASTEIGER

@<TRIPOS>ATOM
      1 C         139.9860  139.2222  163.9839 C.3     1  UNL1        0.2136
      2 O         139.3965  140.5491  163.6074 O.3     1  UNL1       -0.3715
      3 H         139.1379  140.5345  162.6726 H       1  UNL1        0.2114
      4 C         140.3104  138.9576  162.5434 C.ar    1  UNL1        0.0138
      5 C         139.2121  138.6334  161.5746 C.ar    1  UNL1        0.0001
      6 C         139.5366  138.3688  160.1343 C.ar    1  UNL1        0.0190
      7 C         140.9593  138.4283  159.6627 C.ar    1  UNL1        0.0843
      8 C         142.0576  138.7524  160.6315 C.ar    1  UNL1        0.0384
      9 C         143.3563  138.7399  159.8811 C.ar    1  UNL1        0.1220
     10 N         143.0606  138.4080  158.4484 N.ar    1  UNL1       -0.1635
     11 N         141.5792  138.2155  158.3134 N.ar    1  UNL1       -0.2296
     12 C         141.7331  139.0170  162.0719 C.ar    1  UNL1        0.0017
     13 C         140.8463  137.8706  157.0509 C.ar    1  UNL1        0.0829
     14 C         141.2046  136.6277  156.2913 C.ar    1  UNL1        0.0215
     15 C         140.4717  136.2830  155.0289 C.ar    1  UNL1        0.0312
     16 C         139.3805  137.1810  154.5259 C.ar    1  UNL1        0.1402
     17 F         138.6477  136.8361  153.2634 F       1  UNL1       -0.2042
     18 C         139.0223  138.4239  155.2855 C.ar    1  UNL1        0.0312
     19 C         139.7552  138.7686  156.5480 C.ar    1  UNL1        0.0215
     20 C         140.1422  140.7492  167.6436 C.ar    1  UNL1        0.0956
     21 C         140.4665  140.4846  166.2033 C.ar    1  UNL1        0.0111
     22 C         139.6617  139.4868  165.4243 C.ar    1  UNL1        0.0145
     23 C         138.5326  138.7536  166.0857 C.ar    1  UNL1        0.0009
     24 C         138.2082  139.0183  167.5262 C.ar    1  UNL1        0.0301
     25 C         139.0130  140.0160  168.3051 C.ar    1  UNL1        0.1496
     26 F         138.6887  140.2806  169.7455 F       1  UNL1       -0.2035
     27 N         141.7518  142.7447  169.2015 N.1     1  UNL1       -0.1908
     28 C         140.9469  141.7469  168.4226 C.1     1  UNL1        0.1027
     29 C         140.5756  137.8953  164.3604 C.3     1  UNL1        0.4267
     30 F         141.1652  136.5684  164.7369 F       1  UNL1       -0.1670
     31 F         139.5915  136.8965  163.8276 F       1  UNL1       -0.1670
     32 F         141.8451  138.2519  165.0754 F       1  UNL1       -0.1670
@<TRIPOS>BOND
     1    27    28    3
     2    28    20    1
     3    20    21   ar
     4    21    22   ar
     5    22     1    1
     6     1     2    1
     7     1     4    1
     8     4     5   ar
     9     5     6   ar
    10     6     7   ar
    11     7     8   ar
    12     8     9   ar
    13     9    10   ar
    14    10    11   ar
    15    11    13    1
    16    13    14   ar
    17    14    15   ar
    18    15    16   ar
    19    16    17    1
    20    16    18   ar
    21    18    19   ar
    22     8    12   ar
    23     1    29    1
    24    29    30    1
    25    29    31    1
    26    29    32    1
    27    22    23   ar
    28    23    24   ar
    29    24    25   ar
    30    25    26    1
    31    25    20   ar
    32    12     4   ar
    33    11     7   ar
    34    19    13   ar
    35     2     3    1
@<TRIPOS>MOLECULE
*****
 32 35 0 0 0
SMALL
GASTEIGER

@<TRIPOS>ATOM
      1 C         140.4148  140.9813  164.9286 C.3     1  UNL1        0.2136
      2 O         141.7502  141.5453  164.5429 O.3     1  UNL1       -0.3715
      3 H         141.6860  141.9585  163.6677 H       1  UNL1        0.2114
      4 C         140.0222  140.9215  163.4821 C.ar    1  UNL1        0.0138
      5 C         139.6445  142.1779  162.7550 C.ar    1  UNL1        0.0001
      6 C         139.2519  142.1181  161.3085 C.ar    1  UNL1        0.0190
      7 C         139.2370  140.8019  160.5892 C.ar    1  UNL1        0.0843
      8 C         139.6147  139.5455  161.3164 C.ar    1  UNL1        0.0384
      9 C         139.5077  138.4018  160.3518 C.ar    1  UNL1        0.1220
     10 N         139.0638  138.9513  159.0286 N.ar    1  UNL1       -0.1635
     11 N         138.8965  140.4347  159.1752 N.ar    1  UNL1       -0.2296
     12 C         140.0073  139.6053  162.7628 C.ar    1  UNL1        0.0017
     13 C         138.4646  141.3841  158.0973 C.ar    1  UNL1        0.0829
     14 C         137.1962  141.1300  157.3381 C.ar    1  UNL1        0.0215
     15 C         136.7643  142.0795  156.2601 C.ar    1  UNL1        0.0312
     16 C         137.6009  143.2830  155.9414 C.ar    1  UNL1        0.1402
     17 F         137.1690  144.2325  154.8635 F       1  UNL1       -0.2042
     18 C         138.8694  143.5371  156.7006 C.ar    1  UNL1        0.0312
     19 C         139.3012  142.5877  157.7785 C.ar    1  UNL1        0.0215
     20 C         140.8369  142.2986  168.6484 C.ar    1  UNL1        0.0956
     21 C         140.4444  142.2389  167.2019 C.ar    1  UNL1        0.0111
     22 C         140.8074  141.0411  166.3751 C.ar    1  UNL1        0.0145
     23 C         141.5630  139.9030  166.9948 C.ar    1  UNL1        0.0009
     24 C         141.9555  139.9628  168.4413 C.ar    1  UNL1        0.0301
     25 C         141.5925  141.1606  169.2681 C.ar    1  UNL1        0.1496
     26 F         141.9851  141.2203  170.7145 F       1  UNL1       -0.2035
     27 N         140.1109  144.6942  170.3019 N.1     1  UNL1       -0.1908
     28 C         140.4739  143.4964  169.4751 C.1     1  UNL1        0.1027
     29 C         139.0795  140.4174  165.3143 C.3     1  UNL1        0.4267
     30 F         137.7441  139.8534  165.7000 F       1  UNL1       -0.1670
     31 F         139.3694  138.9792  165.6269 F       1  UNL1       -0.1670
     32 F         138.1433  141.5825  165.1884 F       1  UNL1       -0.1670
@<TRIPOS>BOND
     1    27    28    3
     2    28    20    1
     3    20    21   ar
     4    21    22   ar
     5    22     1    1
     6     1     2    1
     7     1     4    1
     8     4     5   ar
     9     5     6   ar
    10     6     7   ar
    11     7     8   ar
    12     8     9   ar
    13     9    10   ar
    14    10    11   ar
    15    11    13    1
    16    13    14   ar
    17    14    15   ar
    18    15    16   ar
    19    16    17    1
    20    16    18   ar
    21    18    19   ar
    22     8    12   ar
    23     1    29    1
    24    29    30    1
    25    29    31    1
    26    29    32    1
    27    22    23   ar
    28    23    24   ar
    29    24    25   ar
    30    25    26    1
    31    25    20   ar
    32    12     4   ar
    33    11     7   ar
    34    19    13   ar
    35     2     3    1
