@<TRIPOS>MOLECULE
*****
 26 31 0 0 0
SMALL
GASTEIGER

@<TRIPOS>ATOM
      1 C         139.9440  144.0688  161.5403 C.3     1  UNL1        0.0430
      2 C         139.1018  145.0220  162.3353 C.3     1  UNL1        0.0088
      3 C         140.0391  143.8524  162.2799 C.3     1  UNL1        0.0180
      4 C         141.4459  141.8038  164.4324 C.3     1  UNL1        0.0779
      5 C         141.3851  141.6843  165.9264 C.3     1  UNL1        0.0934
      6 N         142.0409  140.7351  166.8849 N.pl3   1  UNL1       -0.3059
      7 C         142.9705  139.6158  166.5202 C.3     1  UNL1        0.1122
      8 C         141.6041  141.1017  168.2723 C.ar    1  UNL1        0.0439
      9 C         141.9298  140.5168  169.6146 C.ar    1  UNL1        0.0142
     10 C         141.3296  141.1076  170.8558 C.ar    1  UNL1        0.0012
     11 C         140.4037  142.2834  170.7547 C.ar    1  UNL1       -0.0002
     12 C         140.0780  142.8683  169.4124 C.ar    1  UNL1       -0.0029
     13 C         140.6782  142.2775  168.1712 C.ar    1  UNL1       -0.0056
     14 C         140.5428  142.6375  166.7214 C.3     1  UNL1        0.0639
     15 C         139.7615  143.7103  166.0223 C.3     1  UNL1        0.0242
     16 C         139.8223  143.8298  164.5283 C.3     1  UNL1        0.0623
     17 C         139.0409  144.9026  163.8293 C.3     1  UNL1        0.0422
     18 C         139.0602  144.6837  165.3131 C.3     1  UNL1        0.1170
     19 O         138.3118  145.4897  166.3330 O.3     1  UNL1       -0.3840
     20 N         140.6645  142.8765  163.7334 N.3     1  UNL1       -0.2520
     21 C         140.7254  142.9960  162.2393 C.3     1  UNL1        0.1720
     22 O         141.5676  142.0428  161.4445 O.3     1  UNL1       -0.3698
     23 H         138.4966  145.1415  167.2193 H       1  UNL1        0.2103
     24 H         142.0028  141.4177  162.0451 H       1  UNL1        0.2119
     25 C         140.9647  145.1489  159.4092 C.3     1  UNL1        0.0001
     26 C         140.0049  144.1883  160.0463 C.3     1  UNL1        0.0039
@<TRIPOS>BOND
     1    25    26    1
     2    26     1    1
     3     1     2    1
     4     2     3    1
     5     3     4    1
     6     4     5    1
     7     5     6    1
     8     6     7    1
     9     6     8    1
    10     8     9   ar
    11     9    10   ar
    12    10    11   ar
    13    11    12   ar
    14    12    13   ar
    15    13    14    1
    16    14    15    1
    17    15    16    1
    18    16    17    1
    19    17    18    1
    20    18    19    1
    21    16    20    1
    22    20    21    1
    23    21    22    1
    24    21     1    1
    25    17     2    1
    26    20     4    1
    27    14     5    1
    28    13     8   ar
    29    18    14    1
    30    19    23    1
    31    22    24    1
@<TRIPOS>MOLECULE
*****
 26 31 0 0 0
SMALL
GASTEIGER

@<TRIPOS>ATOM
      1 C         140.8706  145.0612  160.8837 C.3     1  UNL1        0.0430
      2 C         139.8555  145.7058  161.7804 C.3     1  UNL1        0.0088
      3 C         140.9210  144.6745  161.5551 C.3     1  UNL1        0.0180
      4 C         142.3469  142.2803  163.2998 C.3     1  UNL1        0.0779
      5 C         142.1623  141.7831  164.7029 C.3     1  UNL1        0.0934
      6 N         142.8306  140.6840  165.4743 N.pl3   1  UNL1       -0.3059
      7 C         143.9112  139.7784  164.9623 C.3     1  UNL1        0.1122
      8 C         142.2285  140.6492  166.8478 C.ar    1  UNL1        0.0439
      9 C         142.4933  139.7755  168.0379 C.ar    1  UNL1        0.0142
     10 C         141.7176  139.9795  169.3054 C.ar    1  UNL1        0.0012
     11 C         140.6772  141.0573  169.3828 C.ar    1  UNL1       -0.0002
     12 C         140.4124  141.9310  168.1927 C.ar    1  UNL1       -0.0029
     13 C         141.1881  141.7270  166.9252 C.ar    1  UNL1       -0.0056
     14 C         141.1472  142.4278  165.5996 C.3     1  UNL1        0.0639
     15 C         140.3167  143.5696  165.0931 C.3     1  UNL1        0.0242
     16 C         140.5013  144.0668  163.6900 C.3     1  UNL1        0.0623
     17 C         139.6708  145.2087  163.1835 C.3     1  UNL1        0.0422
     18 C         139.5778  144.6253  164.5623 C.3     1  UNL1        0.1170
     19 O         138.6514  145.0795  165.6512 O.3     1  UNL1       -0.3840
     20 N         141.5164  143.4222  162.7933 N.3     1  UNL1       -0.2520
     21 C         141.7011  143.9194  161.3902 C.3     1  UNL1        0.1720
     22 O         142.7161  143.2747  160.4936 O.3     1  UNL1       -0.3698
     23 H         138.7920  144.5365  166.4426 H       1  UNL1        0.2103
     24 H         143.1623  142.5588  160.9725 H       1  UNL1        0.2119
     25 C         140.2553  144.9602  158.3616 C.3     1  UNL1        0.0001
     26 C         141.0552  145.5584  159.4806 C.3     1  UNL1        0.0039
@<TRIPOS>BOND
     1    25    26    1
     2    26     1    1
     3     1     2    1
     4     2     3    1
     5     3     4    1
     6     4     5    1
     7     5     6    1
     8     6     7    1
     9     6     8    1
    10     8     9   ar
    11     9    10   ar
    12    10    11   ar
    13    11    12   ar
    14    12    13   ar
    15    13    14    1
    16    14    15    1
    17    15    16    1
    18    16    17    1
    19    17    18    1
    20    18    19    1
    21    16    20    1
    22    20    21    1
    23    21    22    1
    24    21     1    1
    25    17     2    1
    26    20     4    1
    27    14     5    1
    28    13     8   ar
    29    18    14    1
    30    19    23    1
    31    22    24    1
@<TRIPOS>MOLECULE
*****
 26 31 0 0 0
SMALL
GASTEIGER

@<TRIPOS>ATOM
      1 C         143.4580  142.7584  161.4579 C.3     1  UNL1        0.0430
      2 C         144.4857  143.5537  162.2070 C.3     1  UNL1        0.0088
      3 C         143.2846  142.6553  162.2077 C.3     1  UNL1        0.0180
      4 C         141.3276  141.2714  164.4579 C.3     1  UNL1        0.0779
      5 C         141.3027  141.3060  165.9574 C.3     1  UNL1        0.0934
      6 N         140.3934  140.6615  166.9612 N.pl3   1  UNL1       -0.3059
      7 C         139.2236  139.7754  166.6502 C.3     1  UNL1        0.1122
      8 C         140.8591  141.0585  168.3307 C.ar    1  UNL1        0.0439
      9 C         140.3478  140.7246  169.7007 C.ar    1  UNL1        0.0142
     10 C         141.0336  141.2807  170.9133 C.ar    1  UNL1        0.0012
     11 C         142.2308  142.1706  170.7558 C.ar    1  UNL1       -0.0002
     12 C         142.7421  142.5045  169.3858 C.ar    1  UNL1       -0.0029
     13 C         142.0563  141.9484  168.1732 C.ar    1  UNL1       -0.0056
     14 C         142.3304  142.1013  166.7064 C.3     1  UNL1        0.0639
     15 C         143.3831  142.8621  165.9561 C.3     1  UNL1        0.0242
     16 C         143.4081  142.8275  164.4567 C.3     1  UNL1        0.0623
     17 C         144.4609  143.5884  163.7064 C.3     1  UNL1        0.0422
     18 C         144.3335  143.5462  165.2004 C.3     1  UNL1        0.1170
     19 O         145.2251  144.2480  166.1814 O.3     1  UNL1       -0.3840
     20 N         142.3803  142.0322  163.7076 N.3     1  UNL1       -0.2520
     21 C         142.4053  141.9976  162.2082 C.3     1  UNL1        0.1720
     22 O         141.3776  141.2022  161.4592 O.3     1  UNL1       -0.3698
     23 H         144.9264  144.0566  167.0842 H       1  UNL1        0.2103
     24 H         140.7767  140.7752  162.0897 H       1  UNL1        0.2119
     25 C         142.5941  143.6412  159.1722 C.3     1  UNL1        0.0001
     26 C         143.4829  142.7238  159.9585 C.3     1  UNL1        0.0039
@<TRIPOS>BOND
     1    25    26    1
     2    26     1    1
     3     1     2    1
     4     2     3    1
     5     3     4    1
     6     4     5    1
     7     5     6    1
     8     6     7    1
     9     6     8    1
    10     8     9   ar
    11     9    10   ar
    12    10    11   ar
    13    11    12   ar
    14    12    13   ar
    15    13    14    1
    16    14    15    1
    17    15    16    1
    18    16    17    1
    19    17    18    1
    20    18    19    1
    21    16    20    1
    22    20    21    1
    23    21    22    1
    24    21     1    1
    25    17     2    1
    26    20     4    1
    27    14     5    1
    28    13     8   ar
    29    18    14    1
    30    19    23    1
    31    22    24    1
@<TRIPOS>MOLECULE
*****
 26 31 0 0 0
SMALL
GASTEIGER

@<TRIPOS>ATOM
      1 C         139.6866  138.6219  161.8712 C.3     1  UNL1        0.0430
      2 C         138.6544  137.9939  162.7602 C.3     1  UNL1        0.0088
      3 C         139.8375  138.8983  162.5810 C.3     1  UNL1        0.0180
      4 C         141.7055  140.8096  164.4957 C.3     1  UNL1        0.0779
      5 C         141.6903  141.1202  165.9631 C.3     1  UNL1        0.0934
      6 N         142.5594  142.0002  166.8119 N.pl3   1  UNL1       -0.3059
      7 C         143.7199  142.8203  166.3315 C.3     1  UNL1        0.1122
      8 C         142.0643  141.9161  168.2253 C.ar    1  UNL1        0.0439
      9 C         142.5317  142.5677  169.4929 C.ar    1  UNL1        0.0142
     10 C         141.8240  142.2873  170.7854 C.ar    1  UNL1        0.0012
     11 C         140.6489  141.3554  170.8102 C.ar    1  UNL1       -0.0002
     12 C         140.1815  140.7037  169.5426 C.ar    1  UNL1       -0.0029
     13 C         140.8892  140.9841  168.2501 C.ar    1  UNL1       -0.0056
     14 C         140.6581  140.4923  166.8520 C.3     1  UNL1        0.0639
     15 C         139.6411  139.5537  166.2735 C.3     1  UNL1        0.0242
     16 C         139.6563  139.2431  164.8061 C.3     1  UNL1        0.0623
     17 C         138.6391  138.3045  164.2276 C.3     1  UNL1        0.0422
     18 C         138.7250  138.6911  165.6744 C.3     1  UNL1        0.1170
     19 O         137.8207  138.2108  166.7705 O.3     1  UNL1       -0.3840
     20 N         140.6885  139.8711  163.9172 N.3     1  UNL1       -0.2520
     21 C         140.7037  139.5604  162.4498 C.3     1  UNL1        0.1720
     22 O         141.7359  140.1884  161.5609 O.3     1  UNL1       -0.3698
     23 H         138.0910  138.6114  167.6115 H       1  UNL1        0.2103
     24 H         142.3110  140.7635  162.0895 H       1  UNL1        0.2119
     25 C         139.0936  139.2737  159.4272 C.3     1  UNL1        0.0001
     26 C         139.7018  138.3113  160.4038 C.3     1  UNL1        0.0039
@<TRIPOS>BOND
     1    25    26    1
     2    26     1    1
     3     1     2    1
     4     2     3    1
     5     3     4    1
     6     4     5    1
     7     5     6    1
     8     6     7    1
     9     6     8    1
    10     8     9   ar
    11     9    10   ar
    12    10    11   ar
    13    11    12   ar
    14    12    13   ar
    15    13    14    1
    16    14    15    1
    17    15    16    1
    18    16    17    1
    19    17    18    1
    20    18    19    1
    21    16    20    1
    22    20    21    1
    23    21    22    1
    24    21     1    1
    25    17     2    1
    26    20     4    1
    27    14     5    1
    28    13     8   ar
    29    18    14    1
    30    19    23    1
    31    22    24    1
@<TRIPOS>MOLECULE
*****
 26 31 0 0 0
SMALL
GASTEIGER

@<TRIPOS>ATOM
      1 C         140.3921  140.9473  169.1009 C.3     1  UNL1        0.0430
      2 C         139.2515  140.1376  168.5592 C.3     1  UNL1        0.0088
      3 C         140.6117  140.7451  168.3841 C.3     1  UNL1        0.0180
      4 C         142.8976  140.8653  166.0243 C.3     1  UNL1        0.0779
      5 C         142.9724  140.2982  164.6376 C.3     1  UNL1        0.0934
      6 N         144.0332  140.3701  163.5796 N.pl3   1  UNL1       -0.3059
      7 C         145.3482  141.0823  163.6966 C.3     1  UNL1        0.1122
      8 C         143.5483  139.6050  162.3841 C.ar    1  UNL1        0.0439
      9 C         144.1698  139.3340  161.0461 C.ar    1  UNL1        0.0142
     10 C         143.4308  138.5181  160.0273 C.ar    1  UNL1        0.0012
     11 C         142.0702  137.9732  160.3464 C.ar    1  UNL1       -0.0002
     12 C         141.4486  138.2442  161.6843 C.ar    1  UNL1       -0.0029
     13 C         142.1877  139.0601  162.7032 C.ar    1  UNL1       -0.0056
     14 C         141.8318  139.4885  164.0960 C.3     1  UNL1        0.0639
     15 C         140.6164  139.2459  164.9409 C.3     1  UNL1        0.0242
     16 C         140.5416  139.8130  166.3276 C.3     1  UNL1        0.0623
     17 C         139.3262  139.5705  167.1726 C.3     1  UNL1        0.0422
     18 C         139.5167  139.0572  165.7760 C.3     1  UNL1        0.1170
     19 O         138.5374  138.2268  165.0006 O.3     1  UNL1       -0.3840
     20 N         141.6822  140.6227  166.8693 N.3     1  UNL1       -0.2520
     21 C         141.6075  141.1898  168.2560 C.3     1  UNL1        0.1720
     22 O         142.7481  141.9995  168.7976 O.3     1  UNL1       -0.3698
     23 H         138.9037  138.0289  164.1245 H       1  UNL1        0.2103
     24 H         143.4481  142.0597  168.1288 H       1  UNL1        0.2119
     25 C         139.7755  142.8962  170.7046 C.3     1  UNL1        0.0001
     26 C         140.3173  141.5144  170.4876 C.3     1  UNL1        0.0039
@<TRIPOS>BOND
     1    25    26    1
     2    26     1    1
     3     1     2    1
     4     2     3    1
     5     3     4    1
     6     4     5    1
     7     5     6    1
     8     6     7    1
     9     6     8    1
    10     8     9   ar
    11     9    10   ar
    12    10    11   ar
    13    11    12   ar
    14    12    13   ar
    15    13    14    1
    16    14    15    1
    17    15    16    1
    18    16    17    1
    19    17    18    1
    20    18    19    1
    21    16    20    1
    22    20    21    1
    23    21    22    1
    24    21     1    1
    25    17     2    1
    26    20     4    1
    27    14     5    1
    28    13     8   ar
    29    18    14    1
    30    19    23    1
    31    22    24    1
@<TRIPOS>MOLECULE
*****
 26 31 0 0 0
SMALL
GASTEIGER

@<TRIPOS>ATOM
      1 C         139.5198  140.2336  167.5076 C.3     1  UNL1        0.0430
      2 C         138.5374  139.5124  166.6332 C.3     1  UNL1        0.0088
      3 C         139.5849  140.5711  166.8114 C.3     1  UNL1        0.0180
      4 C         141.0333  142.8499  164.9358 C.3     1  UNL1        0.0779
      5 C         140.8829  143.2412  163.4956 C.3     1  UNL1        0.0934
      6 N         141.5607  144.2898  162.6643 N.pl3   1  UNL1       -0.3059
      7 C         142.6166  145.2440  163.1380 C.3     1  UNL1        0.1122
      8 C         140.9972  144.2167  161.2761 C.ar    1  UNL1        0.0439
      9 C         141.2859  145.0047  160.0329 C.ar    1  UNL1        0.0142
     10 C         140.5484  144.6990  158.7630 C.ar    1  UNL1        0.0012
     11 C         139.5223  143.6052  158.7363 C.ar    1  UNL1       -0.0002
     12 C         139.2337  142.8171  159.9795 C.ar    1  UNL1       -0.0029
     13 C         139.9711  143.1228  161.2494 C.ar    1  UNL1       -0.0056
     14 C         139.9005  142.5200  162.6211 C.3     1  UNL1        0.0639
     15 C         139.0685  141.4075  163.1869 C.3     1  UNL1        0.0242
     16 C         139.2189  141.0162  164.6272 C.3     1  UNL1        0.0623
     17 C         138.3869  139.9036  165.1929 C.3     1  UNL1        0.0422
     18 C         138.3264  140.3838  163.7731 C.3     1  UNL1        0.1170
     19 O         137.4360  139.8397  162.6956 O.3     1  UNL1       -0.3840
     20 N         140.2014  141.7374  165.5016 N.3     1  UNL1       -0.2520
     21 C         140.3518  141.3461  166.9419 C.3     1  UNL1        0.1720
     22 O         141.3342  142.0674  167.8162 O.3     1  UNL1       -0.3698
     23 H         137.5929  140.3253  161.8707 H       1  UNL1        0.2103
     24 H         141.7858  142.7522  167.2986 H       1  UNL1        0.2119
     25 C         138.9075  140.5790  170.0088 C.3     1  UNL1        0.0001
     26 C         139.6702  139.8423  168.9479 C.3     1  UNL1        0.0039
@<TRIPOS>BOND
     1    25    26    1
     2    26     1    1
     3     1     2    1
     4     2     3    1
     5     3     4    1
     6     4     5    1
     7     5     6    1
     8     6     7    1
     9     6     8    1
    10     8     9   ar
    11     9    10   ar
    12    10    11   ar
    13    11    12   ar
    14    12    13   ar
    15    13    14    1
    16    14    15    1
    17    15    16    1
    18    16    17    1
    19    17    18    1
    20    18    19    1
    21    16    20    1
    22    20    21    1
    23    21    22    1
    24    21     1    1
    25    17     2    1
    26    20     4    1
    27    14     5    1
    28    13     8   ar
    29    18    14    1
    30    19    23    1
    31    22    24    1
@<TRIPOS>MOLECULE
*****
 26 31 0 0 0
SMALL
GASTEIGER

@<TRIPOS>ATOM
      1 C         142.7461  143.4870  163.4729 C.3     1  UNL1        0.0430
      2 C         141.6421  144.4681  163.7346 C.3     1  UNL1        0.0088
      3 C         142.5184  143.7257  162.7700 C.3     1  UNL1        0.0180
      4 C         142.8840  143.5536  159.5073 C.3     1  UNL1        0.0779
      5 C         142.1940  144.2299  158.3599 C.3     1  UNL1        0.0934
      6 N         142.3835  144.1308  156.8752 N.pl3   1  UNL1       -0.3059
      7 C         143.3843  143.2639  156.1701 C.3     1  UNL1        0.1122
      8 C         141.3967  145.0506  156.2194 C.ar    1  UNL1        0.0439
      9 C         141.1228  145.3664  154.7788 C.ar    1  UNL1        0.0142
     10 C         140.0494  146.3499  154.4177 C.ar    1  UNL1        0.0012
     11 C         139.2499  147.0176  155.4970 C.ar    1  UNL1       -0.0002
     12 C         139.5238  146.7018  156.9376 C.ar    1  UNL1       -0.0029
     13 C         140.5972  145.7182  157.2987 C.ar    1  UNL1       -0.0056
     14 C         141.0899  145.2111  158.6216 C.3     1  UNL1        0.0639
     15 C         140.6760  145.5159  160.0307 C.3     1  UNL1        0.0242
     16 C         141.3660  144.8396  161.1781 C.3     1  UNL1        0.0623
     17 C         140.9520  145.1444  162.5873 C.3     1  UNL1        0.0422
     18 C         140.3392  145.7549  161.3618 C.3     1  UNL1        0.1170
     19 O         139.2250  146.7589  161.3399 O.3     1  UNL1       -0.3840
     20 N         142.4700  143.8584  160.9164 N.3     1  UNL1       -0.2520
     21 C         143.1601  143.1821  162.0638 C.3     1  UNL1        0.1720
     22 O         144.2640  142.2011  161.8020 O.3     1  UNL1       -0.3698
     23 H         139.0166  146.9906  160.4214 H       1  UNL1        0.2103
     24 H         144.4048  142.1204  160.8456 H       1  UNL1        0.2119
     25 C         144.4847  143.5444  165.4026 C.3     1  UNL1        0.0001
     26 C         143.4361  142.8106  164.6203 C.3     1  UNL1        0.0039
@<TRIPOS>BOND
     1    25    26    1
     2    26     1    1
     3     1     2    1
     4     2     3    1
     5     3     4    1
     6     4     5    1
     7     5     6    1
     8     6     7    1
     9     6     8    1
    10     8     9   ar
    11     9    10   ar
    12    10    11   ar
    13    11    12   ar
    14    12    13   ar
    15    13    14    1
    16    14    15    1
    17    15    16    1
    18    16    17    1
    19    17    18    1
    20    18    19    1
    21    16    20    1
    22    20    21    1
    23    21    22    1
    24    21     1    1
    25    17     2    1
    26    20     4    1
    27    14     5    1
    28    13     8   ar
    29    18    14    1
    30    19    23    1
    31    22    24    1
@<TRIPOS>MOLECULE
*****
 26 31 0 0 0
SMALL
GASTEIGER

@<TRIPOS>ATOM
      1 C         142.3962  139.5082  168.3053 C.3     1  UNL1        0.0430
      2 C         143.2873  139.0449  167.1911 C.3     1  UNL1        0.0088
      3 C         142.2302  139.9752  167.7076 C.3     1  UNL1        0.0180
      4 C         140.4674  142.4893  166.5324 C.3     1  UNL1        0.0779
      5 C         140.4185  143.1741  165.1988 C.3     1  UNL1        0.0934
      6 N         139.6002  144.3237  164.6902 N.pl3   1  UNL1       -0.3059
      7 C         138.5762  145.0914  165.4726 C.3     1  UNL1        0.1122
      8 C         139.9855  144.5709  163.2617 C.ar    1  UNL1        0.0439
      9 C         139.5109  145.5749  162.2535 C.ar    1  UNL1        0.0142
     10 C         140.0928  145.5821  160.8710 C.ar    1  UNL1        0.0012
     11 C         141.1493  144.5852  160.4968 C.ar    1  UNL1       -0.0002
     12 C         141.6239  143.5812  161.5050 C.ar    1  UNL1       -0.0029
     13 C         141.0421  143.5740  162.8875 C.ar    1  UNL1       -0.0056
     14 C         141.3096  142.7108  164.0847 C.3     1  UNL1        0.0639
     15 C         142.2496  141.5626  164.3042 C.3     1  UNL1        0.0242
     16 C         142.2985  140.8778  165.6379 C.3     1  UNL1        0.0623
     17 C         143.2385  139.7296  165.8574 C.3     1  UNL1        0.0422
     18 C         143.0996  140.4913  164.5727 C.3     1  UNL1        0.1170
     19 O         143.8668  140.2364  163.3092 O.3     1  UNL1       -0.3840
     20 N         141.4073  141.3411  166.7520 N.3     1  UNL1       -0.2520
     21 C         141.4562  140.6563  168.0857 C.3     1  UNL1        0.1720
     22 O         140.5651  141.1197  169.1997 O.3     1  UNL1       -0.3698
     23 H         143.5877  140.8684  162.6284 H       1  UNL1        0.2103
     24 H         140.0249  141.8647  168.8931 H       1  UNL1        0.2119
     25 C         143.1713  139.4636  170.7846 C.3     1  UNL1        0.0001
     26 C         142.4450  138.8234  169.6389 C.3     1  UNL1        0.0039
@<TRIPOS>BOND
     1    25    26    1
     2    26     1    1
     3     1     2    1
     4     2     3    1
     5     3     4    1
     6     4     5    1
     7     5     6    1
     8     6     7    1
     9     6     8    1
    10     8     9   ar
    11     9    10   ar
    12    10    11   ar
    13    11    12   ar
    14    12    13   ar
    15    13    14    1
    16    14    15    1
    17    15    16    1
    18    16    17    1
    19    17    18    1
    20    18    19    1
    21    16    20    1
    22    20    21    1
    23    21    22    1
    24    21     1    1
    25    17     2    1
    26    20     4    1
    27    14     5    1
    28    13     8   ar
    29    18    14    1
    30    19    23    1
    31    22    24    1
@<TRIPOS>MOLECULE
*****
 26 31 0 0 0
SMALL
GASTEIGER

@<TRIPOS>ATOM
      1 C         138.6223  139.4747  164.8785 C.3     1  UNL1        0.0430
      2 C         138.1154  140.8865  164.8742 C.3     1  UNL1        0.0088
      3 C         138.6160  139.6838  164.1308 C.3     1  UNL1        0.0180
      4 C         139.1962  138.8722  160.9981 C.3     1  UNL1        0.0779
      5 C         139.0495  139.6126  159.7018 C.3     1  UNL1        0.0934
      6 N         139.3235  139.2142  158.2819 N.pl3   1  UNL1       -0.3059
      7 C         139.8437  137.8838  157.8241 C.3     1  UNL1        0.1122
      8 C         138.9859  140.3797  157.4000 C.ar    1  UNL1        0.0439
      9 C         139.0556  140.5668  155.9134 C.ar    1  UNL1        0.0142
     10 C         138.6427  141.8727  155.3017 C.ar    1  UNL1        0.0012
     11 C         138.1602  142.9914  156.1767 C.ar    1  UNL1       -0.0002
     12 C         138.0905  142.8043  157.6633 C.ar    1  UNL1       -0.0029
     13 C         138.5034  141.4984  158.2750 C.ar    1  UNL1       -0.0056
     14 C         138.5427  141.0243  159.6975 C.3     1  UNL1        0.0639
     15 C         138.1824  141.6957  160.9896 C.3     1  UNL1        0.0242
     16 C         138.3291  140.9554  162.2859 C.3     1  UNL1        0.0623
     17 C         137.9688  141.6269  163.5780 C.3     1  UNL1        0.0422
     18 C         137.8654  142.2619  162.2229 C.3     1  UNL1        0.1170
     19 O         137.3910  143.6557  161.9363 O.3     1  UNL1       -0.3840
     20 N         138.8359  139.5437  162.2902 N.3     1  UNL1       -0.2520
     21 C         138.9825  138.8033  163.5865 C.3     1  UNL1        0.1720
     22 O         139.4894  137.3916  163.5907 O.3     1  UNL1       -0.3698
     23 H         137.4210  143.8173  160.9804 H       1  UNL1        0.2103
     24 H         139.6738  137.1116  162.6805 H       1  UNL1        0.2119
     25 C         137.5495  138.3173  166.9424 C.3     1  UNL1        0.0001
     26 C         138.7689  138.7344  166.1749 C.3     1  UNL1        0.0039
@<TRIPOS>BOND
     1    25    26    1
     2    26     1    1
     3     1     2    1
     4     2     3    1
     5     3     4    1
     6     4     5    1
     7     5     6    1
     8     6     7    1
     9     6     8    1
    10     8     9   ar
    11     9    10   ar
    12    10    11   ar
    13    11    12   ar
    14    12    13   ar
    15    13    14    1
    16    14    15    1
    17    15    16    1
    18    16    17    1
    19    17    18    1
    20    18    19    1
    21    16    20    1
    22    20    21    1
    23    21    22    1
    24    21     1    1
    25    17     2    1
    26    20     4    1
    27    14     5    1
    28    13     8   ar
    29    18    14    1
    30    19    23    1
    31    22    24    1
