@<TRIPOS>MOLECULE
*****
 28 30 0 0 0
SMALL
GASTEIGER

@<TRIPOS>ATOM
      1 C         141.6692  143.4965  161.7973 C.ar    1  UNL1        0.0322
      2 C         140.5139  142.6029  162.1386 C.ar    1  UNL1        0.0057
      3 C         140.0075  142.5374  163.5491 C.ar    1  UNL1        0.0346
      4 C         140.6566  143.3655  164.6182 C.ar    1  UNL1        0.1358
      5 N         141.8120  144.2592  164.2767 N.ar    1  UNL1       -0.2163
      6 C         142.3183  144.3246  162.8663 C.ar    1  UNL1        0.1267
      7 N         143.4737  145.2183  162.5249 N.pl3   1  UNL1       -0.3426
      8 H         143.8997  145.7618  163.2265 H       1  UNL1        0.1437
      9 H         143.8060  145.2612  161.5991 H       1  UNL1        0.1437
     10 C         143.7718  142.7000  158.5269 C.ar    1  UNL1        0.1388
     11 C         143.1882  143.6929  157.5660 C.ar    1  UNL1        0.0378
     12 C         142.0983  144.6203  158.0154 C.ar    1  UNL1        0.0145
     13 C         141.5920  144.5549  159.4258 C.ar    1  UNL1        0.0579
     14 CL        140.5021  145.4823  159.8752 Cl      1  UNL1       -0.0822
     15 C         142.1755  143.5620  160.3868 C.ar    1  UNL1        0.0163
     16 C         143.2654  142.6345  159.9374 C.ar    1  UNL1        0.0378
     17 C         145.8444  142.2190  157.0360 C.3     1  UNL1        0.2525
     18 O         144.8617  141.7725  158.0775 O.3     1  UNL1       -0.4714
     19 N         140.1503  143.3001  166.0286 N.am    1  UNL1       -0.2645
     20 C         140.9071  142.5190  167.0616 C.2     1  UNL1        0.2680
     21 O         142.1702  141.8034  166.6841 O.2     1  UNL1       -0.2681
     22 H         139.3213  143.7697  166.2763 H       1  UNL1        0.1566
     23 C         140.4009  142.4535  168.4721 C.ar    1  UNL1        0.1330
     24 C         140.4681  143.5578  169.4851 C.ar    1  UNL1        0.0458
     25 C         139.8473  143.0591  170.7563 C.ar    1  UNL1        0.1218
     26 N         139.3964  141.6466  170.5289 N.ar    1  UNL1       -0.1675
     27 N         139.7386  141.2724  169.1172 N.ar    1  UNL1       -0.2443
     28 C         139.4662  139.9493  168.4651 C.3     1  UNL1        0.1539
@<TRIPOS>BOND
     1    17    18    1
     2    18    10    1
     3    10    11   ar
     4    11    12   ar
     5    12    13   ar
     6    13    14    1
     7    13    15   ar
     8    15     1    1
     9     1     2   ar
    10     2     3   ar
    11     3     4   ar
    12     4    19    1
    13    19    20   am
    14    20    21    2
    15    20    23    1
    16    23    24   ar
    17    24    25   ar
    18    25    26   ar
    19    26    27   ar
    20    27    28    1
    21     4     5   ar
    22     5     6   ar
    23     6     7    1
    24    15    16   ar
    25    16    10   ar
    26     6     1   ar
    27    27    23   ar
    28    19    22    1
    29     7     8    1
    30     7     9    1
@<TRIPOS>MOLECULE
*****
 28 30 0 0 0
SMALL
GASTEIGER

@<TRIPOS>ATOM
      1 C         141.3043  143.5681  162.8082 C.ar    1  UNL1        0.0322
      2 C         140.9780  142.5915  161.7175 C.ar    1  UNL1        0.0057
      3 C         140.5141  143.0882  160.3802 C.ar    1  UNL1        0.0346
      4 C         140.3766  144.5614  160.1338 C.ar    1  UNL1        0.1358
      5 N         140.7030  145.5380  161.2246 N.ar    1  UNL1       -0.2163
      6 C         141.1669  145.0413  162.5618 C.ar    1  UNL1        0.1267
      7 N         141.4933  146.0179  163.6526 N.pl3   1  UNL1       -0.3426
      8 H         141.4030  146.9848  163.4909 H       1  UNL1        0.1437
      9 H         141.7977  145.6919  164.5303 H       1  UNL1        0.1437
     10 C         141.2286  142.2007  166.5331 C.ar    1  UNL1        0.1388
     11 C         142.6958  142.0782  166.8200 C.ar    1  UNL1        0.0378
     12 C         143.6992  142.4523  165.7696 C.ar    1  UNL1        0.0145
     13 C         143.2354  142.9490  164.4324 C.ar    1  UNL1        0.0579
     14 CL        144.2388  143.3231  163.3820 Cl      1  UNL1       -0.0822
     15 C         141.7682  143.0714  164.1455 C.ar    1  UNL1        0.0163
     16 C         140.7648  142.6973  165.1959 C.ar    1  UNL1        0.0378
     17 C         139.8574  140.3871  167.7904 C.3     1  UNL1        0.2525
     18 O         140.2252  141.8265  167.5834 O.3     1  UNL1       -0.4714
     19 N         139.9128  145.0581  158.7966 N.am    1  UNL1       -0.2645
     20 C         140.8696  145.7723  157.8887 C.2     1  UNL1        0.2680
     21 O         142.2903  145.9900  158.3181 O.2     1  UNL1       -0.2681
     22 H         138.9804  144.9152  158.5148 H       1  UNL1        0.1566
     23 C         140.4058  146.2691  156.5514 C.ar    1  UNL1        0.1330
     24 C         139.2365  147.1756  156.3048 C.ar    1  UNL1        0.0458
     25 C         139.1378  147.4133  154.8270 C.ar    1  UNL1        0.1218
     26 N         140.2462  146.6536  154.1604 N.ar    1  UNL1       -0.1675
     27 N         141.0299  145.9464  155.2262 N.ar    1  UNL1       -0.2443
     28 C         142.2273  145.0704  155.0053 C.3     1  UNL1        0.1539
@<TRIPOS>BOND
     1    17    18    1
     2    18    10    1
     3    10    11   ar
     4    11    12   ar
     5    12    13   ar
     6    13    14    1
     7    13    15   ar
     8    15     1    1
     9     1     2   ar
    10     2     3   ar
    11     3     4   ar
    12     4    19    1
    13    19    20   am
    14    20    21    2
    15    20    23    1
    16    23    24   ar
    17    24    25   ar
    18    25    26   ar
    19    26    27   ar
    20    27    28    1
    21     4     5   ar
    22     5     6   ar
    23     6     7    1
    24    15    16   ar
    25    16    10   ar
    26     6     1   ar
    27    27    23   ar
    28    19    22    1
    29     7     8    1
    30     7     9    1
@<TRIPOS>MOLECULE
*****
 28 30 0 0 0
SMALL
GASTEIGER

@<TRIPOS>ATOM
      1 C         140.9177  139.1995  164.7133 C.ar    1  UNL1        0.0322
      2 C         141.0373  137.7821  164.2371 C.ar    1  UNL1        0.0057
      3 C         141.1895  137.4931  162.7731 C.ar    1  UNL1        0.0346
      4 C         141.2221  138.6214  161.7852 C.ar    1  UNL1        0.1358
      5 N         141.1024  140.0388  162.2615 N.ar    1  UNL1       -0.2163
      6 C         140.9503  140.3278  163.7255 C.ar    1  UNL1        0.1267
      7 N         140.8307  141.7452  164.2017 N.pl3   1  UNL1       -0.3426
      8 H         140.8520  142.4858  163.5534 H       1  UNL1        0.1437
      9 H         140.7308  141.9349  165.1626 H       1  UNL1        0.1437
     10 C         141.8297  139.9529  168.5015 C.ar    1  UNL1        0.1388
     11 C         140.4613  140.0666  169.1053 C.ar    1  UNL1        0.0378
     12 C         139.2451  139.8914  168.2450 C.ar    1  UNL1        0.0145
     13 C         139.3972  139.6023  166.7811 C.ar    1  UNL1        0.0579
     14 CL        138.1809  139.4271  165.9208 Cl      1  UNL1       -0.0822
     15 C         140.7656  139.4885  166.1773 C.ar    1  UNL1        0.0163
     16 C         141.9818  139.6638  167.0376 C.ar    1  UNL1        0.0378
     17 C         143.3979  141.4850  169.8956 C.3     1  UNL1        0.2525
     18 O         143.0460  140.1281  169.3618 O.3     1  UNL1       -0.4714
     19 N         141.3742  138.3324  160.3213 N.am    1  UNL1       -0.2645
     20 C         142.7200  138.4506  159.6694 C.2     1  UNL1        0.2680
     21 O         143.9135  138.8578  160.4816 O.2     1  UNL1       -0.2681
     22 H         140.5908  138.0652  159.7882 H       1  UNL1        0.1566
     23 C         142.8722  138.1616  158.2054 C.ar    1  UNL1        0.1330
     24 C         142.6841  136.8276  157.5458 C.ar    1  UNL1        0.0458
     25 C         142.9349  136.9973  156.0767 C.ar    1  UNL1        0.1218
     26 N         143.2779  138.4363  155.8283 N.ar    1  UNL1       -0.1675
     27 N         143.2392  139.1559  157.1439 N.ar    1  UNL1       -0.2443
     28 C         143.5184  140.6137  157.3600 C.3     1  UNL1        0.1539
@<TRIPOS>BOND
     1    17    18    1
     2    18    10    1
     3    10    11   ar
     4    11    12   ar
     5    12    13   ar
     6    13    14    1
     7    13    15   ar
     8    15     1    1
     9     1     2   ar
    10     2     3   ar
    11     3     4   ar
    12     4    19    1
    13    19    20   am
    14    20    21    2
    15    20    23    1
    16    23    24   ar
    17    24    25   ar
    18    25    26   ar
    19    26    27   ar
    20    27    28    1
    21     4     5   ar
    22     5     6   ar
    23     6     7    1
    24    15    16   ar
    25    16    10   ar
    26     6     1   ar
    27    27    23   ar
    28    19    22    1
    29     7     8    1
    30     7     9    1
@<TRIPOS>MOLECULE
*****
 28 30 0 0 0
SMALL
GASTEIGER

@<TRIPOS>ATOM
      1 C         140.2286  142.1904  165.4409 C.ar    1  UNL1        0.0322
      2 C         139.2205  143.1620  164.9026 C.ar    1  UNL1        0.0057
      3 C         139.2696  143.5719  163.4605 C.ar    1  UNL1        0.0346
      4 C         140.3268  143.0101  162.5567 C.ar    1  UNL1        0.1358
      5 N         141.3349  142.0384  163.0951 N.ar    1  UNL1       -0.2163
      6 C         141.2857  141.6286  164.5371 C.ar    1  UNL1        0.1267
      7 N         142.2938  140.6570  165.0755 N.pl3   1  UNL1       -0.3426
      8 H         142.9877  140.2883  164.4824 H       1  UNL1        0.1437
      9 H         142.2615  140.3880  166.0220 H       1  UNL1        0.1437
     10 C         140.7557  142.2419  169.3740 C.ar    1  UNL1        0.1388
     11 C         140.0813  140.9610  169.7672 C.ar    1  UNL1        0.0378
     12 C         139.4561  140.0899  168.7182 C.ar    1  UNL1        0.0145
     13 C         139.5051  140.4997  167.2762 C.ar    1  UNL1        0.0579
     14 CL        138.8799  139.6286  166.2272 Cl      1  UNL1       -0.0822
     15 C         140.1795  141.7806  166.8830 C.ar    1  UNL1        0.0163
     16 C         140.8047  142.6517  167.9320 C.ar    1  UNL1        0.0378
     17 C         142.8725  143.1476  170.5776 C.3     1  UNL1        0.2525
     18 O         141.3809  143.1129  170.4230 O.3     1  UNL1       -0.4714
     19 N         140.3759  143.4199  161.1146 N.am    1  UNL1       -0.2645
     20 C         141.5364  144.2197  160.6014 C.2     1  UNL1        0.2680
     21 O         142.6478  144.6097  161.5302 O.2     1  UNL1       -0.2681
     22 H         139.6465  143.1639  160.5050 H       1  UNL1        0.1566
     23 C         141.5856  144.6295  159.1592 C.ar    1  UNL1        0.1330
     24 C         140.6650  145.6052  158.4881 C.ar    1  UNL1        0.0458
     25 C         141.0744  145.7144  157.0492 C.ar    1  UNL1        0.1218
     26 N         142.2481  144.8061  156.8311 N.ar    1  UNL1       -0.1675
     27 N         142.5640  144.1356  158.1352 N.ar    1  UNL1       -0.2443
     28 C         143.6650  143.1452  158.3733 C.3     1  UNL1        0.1539
@<TRIPOS>BOND
     1    17    18    1
     2    18    10    1
     3    10    11   ar
     4    11    12   ar
     5    12    13   ar
     6    13    14    1
     7    13    15   ar
     8    15     1    1
     9     1     2   ar
    10     2     3   ar
    11     3     4   ar
    12     4    19    1
    13    19    20   am
    14    20    21    2
    15    20    23    1
    16    23    24   ar
    17    24    25   ar
    18    25    26   ar
    19    26    27   ar
    20    27    28    1
    21     4     5   ar
    22     5     6   ar
    23     6     7    1
    24    15    16   ar
    25    16    10   ar
    26     6     1   ar
    27    27    23   ar
    28    19    22    1
    29     7     8    1
    30     7     9    1
@<TRIPOS>MOLECULE
*****
 28 30 0 0 0
SMALL
GASTEIGER

@<TRIPOS>ATOM
      1 C         142.1323  143.2995  161.9256 C.ar    1  UNL1        0.0322
      2 C         141.2647  142.1422  162.3231 C.ar    1  UNL1        0.0057
      3 C         141.1185  141.7769  163.7707 C.ar    1  UNL1        0.0346
      4 C         141.8398  142.5689  164.8206 C.ar    1  UNL1        0.1358
      5 N         142.7075  143.7262  164.4230 N.ar    1  UNL1       -0.2163
      6 C         142.8537  144.0915  162.9756 C.ar    1  UNL1        0.1267
      7 N         143.7213  145.2488  162.5780 N.pl3   1  UNL1       -0.3426
      8 H         144.1947  145.7686  163.2671 H       1  UNL1        0.1437
      9 H         143.8172  145.4885  161.6280 H       1  UNL1        0.1437
     10 C         141.5073  145.0459  158.4172 C.ar    1  UNL1        0.1388
     11 C         142.5709  144.3954  157.5832 C.ar    1  UNL1        0.0378
     12 C         143.4884  143.3796  158.1968 C.ar    1  UNL1        0.0145
     13 C         143.3422  143.0143  159.6442 C.ar    1  UNL1        0.0579
     14 CL        144.2596  141.9985  160.2577 Cl      1  UNL1       -0.0822
     15 C         142.2785  143.6648  160.4781 C.ar    1  UNL1        0.0163
     16 C         141.3611  144.6806  159.8646 C.ar    1  UNL1        0.0378
     17 C         140.2338  145.9694  156.3495 C.3     1  UNL1        0.2525
     18 O         140.5898  146.0617  157.8036 O.3     1  UNL1       -0.4714
     19 N         141.6936  142.2036  166.2681 N.am    1  UNL1       -0.2645
     20 C         140.5535  142.7577  167.0699 C.2     1  UNL1        0.2680
     21 O         139.5595  143.6771  166.4242 O.2     1  UNL1       -0.2681
     22 H         142.3460  141.6003  166.6918 H       1  UNL1        0.1566
     23 C         140.4072  142.3925  168.5174 C.ar    1  UNL1        0.1330
     24 C         140.7657  143.2613  169.6865 C.ar    1  UNL1        0.0458
     25 C         140.4569  142.5001  170.9416 C.ar    1  UNL1        0.1218
     26 N         139.9075  141.1609  170.5482 N.ar    1  UNL1       -0.1675
     27 N         139.8769  141.0944  169.0500 N.ar    1  UNL1       -0.2443
     28 C         139.3996  139.9335  168.2286 C.3     1  UNL1        0.1539
@<TRIPOS>BOND
     1    17    18    1
     2    18    10    1
     3    10    11   ar
     4    11    12   ar
     5    12    13   ar
     6    13    14    1
     7    13    15   ar
     8    15     1    1
     9     1     2   ar
    10     2     3   ar
    11     3     4   ar
    12     4    19    1
    13    19    20   am
    14    20    21    2
    15    20    23    1
    16    23    24   ar
    17    24    25   ar
    18    25    26   ar
    19    26    27   ar
    20    27    28    1
    21     4     5   ar
    22     5     6   ar
    23     6     7    1
    24    15    16   ar
    25    16    10   ar
    26     6     1   ar
    27    27    23   ar
    28    19    22    1
    29     7     8    1
    30     7     9    1
@<TRIPOS>MOLECULE
*****
 28 30 0 0 0
SMALL
GASTEIGER

@<TRIPOS>ATOM
      1 C         141.1921  143.6938  163.4519 C.ar    1  UNL1        0.0322
      2 C         140.8400  145.1445  163.3055 C.ar    1  UNL1        0.0057
      3 C         140.3326  145.6644  161.9931 C.ar    1  UNL1        0.0346
      4 C         140.1773  144.7335  160.8272 C.ar    1  UNL1        0.1358
      5 N         140.5294  143.2827  160.9737 N.ar    1  UNL1       -0.2163
      6 C         141.0368  142.7629  162.2860 C.ar    1  UNL1        0.1267
      7 N         141.3890  141.3122  162.4325 N.pl3   1  UNL1       -0.3426
      8 H         141.2871  140.7012  161.6673 H       1  UNL1        0.1437
      9 H         141.7220  140.9710  163.2939 H       1  UNL1        0.1437
     10 C         141.2388  142.1921  167.1252 C.ar    1  UNL1        0.1388
     11 C         142.7143  142.1342  167.3890 C.ar    1  UNL1        0.0378
     12 C         143.6824  142.5961  166.3405 C.ar    1  UNL1        0.0145
     13 C         143.1750  143.1160  165.0282 C.ar    1  UNL1        0.0579
     14 CL        144.1431  143.5779  163.9796 Cl      1  UNL1       -0.0822
     15 C         141.6996  143.1739  164.7643 C.ar    1  UNL1        0.0163
     16 C         140.7315  142.7120  165.8129 C.ar    1  UNL1        0.0378
     17 C         140.1161  140.2657  168.4587 C.3     1  UNL1        0.2525
     18 O         140.2707  141.7302  168.1737 O.3     1  UNL1       -0.4714
     19 N         139.6699  145.2533  159.5149 N.am    1  UNL1       -0.2645
     20 C         140.6387  145.6766  158.4508 C.2     1  UNL1        0.2680
     21 O         142.1148  145.5800  158.6991 O.2     1  UNL1       -0.2681
     22 H         138.7011  145.3166  159.3519 H       1  UNL1        0.1566
     23 C         140.1313  146.1964  157.1383 C.ar    1  UNL1        0.1330
     24 C         139.2286  147.3792  156.9481 C.ar    1  UNL1        0.0458
     25 C         138.9769  147.5386  155.4780 C.ar    1  UNL1        0.1218
     26 N         139.7241  146.4542  154.7596 N.ar    1  UNL1       -0.1675
     27 N         140.4375  145.6248  155.7858 N.ar    1  UNL1       -0.2443
     28 C         141.3049  144.4329  155.5081 C.3     1  UNL1        0.1539
@<TRIPOS>BOND
     1    17    18    1
     2    18    10    1
     3    10    11   ar
     4    11    12   ar
     5    12    13   ar
     6    13    14    1
     7    13    15   ar
     8    15     1    1
     9     1     2   ar
    10     2     3   ar
    11     3     4   ar
    12     4    19    1
    13    19    20   am
    14    20    21    2
    15    20    23    1
    16    23    24   ar
    17    24    25   ar
    18    25    26   ar
    19    26    27   ar
    20    27    28    1
    21     4     5   ar
    22     5     6   ar
    23     6     7    1
    24    15    16   ar
    25    16    10   ar
    26     6     1   ar
    27    27    23   ar
    28    19    22    1
    29     7     8    1
    30     7     9    1
@<TRIPOS>MOLECULE
*****
 28 30 0 0 0
SMALL
GASTEIGER

@<TRIPOS>ATOM
      1 C         139.3461  142.0050  164.6887 C.ar    1  UNL1        0.0322
      2 C         138.0171  142.6012  164.3306 C.ar    1  UNL1        0.0057
      3 C         137.7266  142.9878  162.9106 C.ar    1  UNL1        0.0346
      4 C         138.7652  142.7782  161.8488 C.ar    1  UNL1        0.1358
      5 N         140.0942  142.1819  162.2070 N.ar    1  UNL1       -0.2163
      6 C         140.3847  141.7953  163.6269 C.ar    1  UNL1        0.1267
      7 N         141.7137  141.1991  163.9850 N.pl3   1  UNL1       -0.3426
      8 H         142.3954  141.0615  163.2881 H       1  UNL1        0.1437
      9 H         141.9043  140.9454  164.9169 H       1  UNL1        0.1437
     10 C         140.6294  142.1947  168.4393 C.ar    1  UNL1        0.1388
     11 C         140.2176  140.8452  168.9484 C.ar    1  UNL1        0.0378
     12 C         139.5153  139.8823  168.0376 C.ar    1  UNL1        0.0145
     13 C         139.2248  140.2689  166.6177 C.ar    1  UNL1        0.0579
     14 CL        138.5226  139.3059  165.7070 Cl      1  UNL1       -0.0822
     15 C         139.6366  141.6184  166.1086 C.ar    1  UNL1        0.0163
     16 C         140.3389  142.5813  167.0194 C.ar    1  UNL1        0.0378
     17 C         142.5926  142.7447  170.0497 C.3     1  UNL1        0.2525
     18 O         141.3317  143.1577  169.3501 O.3     1  UNL1       -0.4714
     19 N         138.4747  143.1648  160.4289 N.am    1  UNL1       -0.2645
     20 C         138.4751  142.1204  159.3523 C.2     1  UNL1        0.2680
     21 O         138.7658  140.6894  159.6955 O.2     1  UNL1       -0.2681
     22 H         138.2839  144.1039  160.2036 H       1  UNL1        0.1566
     23 C         138.1846  142.5069  157.9323 C.ar    1  UNL1        0.1330
     24 C         137.1151  141.9197  157.0598 C.ar    1  UNL1        0.0458
     25 C         137.1821  142.5983  155.7238 C.ar    1  UNL1        0.1218
     26 N         138.2931  143.6051  155.7706 N.ar    1  UNL1       -0.1675
     27 N         138.9127  143.5486  157.1355 N.ar    1  UNL1       -0.2443
     28 C         140.0590  144.3866  157.6188 C.3     1  UNL1        0.1539
@<TRIPOS>BOND
     1    17    18    1
     2    18    10    1
     3    10    11   ar
     4    11    12   ar
     5    12    13   ar
     6    13    14    1
     7    13    15   ar
     8    15     1    1
     9     1     2   ar
    10     2     3   ar
    11     3     4   ar
    12     4    19    1
    13    19    20   am
    14    20    21    2
    15    20    23    1
    16    23    24   ar
    17    24    25   ar
    18    25    26   ar
    19    26    27   ar
    20    27    28    1
    21     4     5   ar
    22     5     6   ar
    23     6     7    1
    24    15    16   ar
    25    16    10   ar
    26     6     1   ar
    27    27    23   ar
    28    19    22    1
    29     7     8    1
    30     7     9    1
@<TRIPOS>MOLECULE
*****
 28 30 0 0 0
SMALL
GASTEIGER

@<TRIPOS>ATOM
      1 C         139.6471  142.3466  163.2277 C.ar    1  UNL1        0.0322
      2 C         140.5761  141.8085  162.1801 C.ar    1  UNL1        0.0057
      3 C         140.5490  142.3748  160.7913 C.ar    1  UNL1        0.0346
      4 C         139.5928  143.4790  160.4501 C.ar    1  UNL1        0.1358
      5 N         138.6638  144.0171  161.4978 N.ar    1  UNL1       -0.2163
      6 C         138.6910  143.4508  162.8865 C.ar    1  UNL1        0.1267
      7 N         137.7619  143.9889  163.9342 N.pl3   1  UNL1       -0.3426
      8 H         137.1344  144.7136  163.7103 H       1  UNL1        0.1437
      9 H         137.7798  143.6172  164.8457 H       1  UNL1        0.1437
     10 C         140.4519  141.9266  167.0911 C.ar    1  UNL1        0.1388
     11 C         139.7285  140.6480  167.3940 C.ar    1  UNL1        0.0378
     12 C         138.9779  139.9356  166.3081 C.ar    1  UNL1        0.0145
     13 C         138.9508  140.5017  164.9194 C.ar    1  UNL1        0.0579
     14 CL        138.2002  139.7893  163.8335 Cl      1  UNL1       -0.0822
     15 C         139.6742  141.7803  164.6165 C.ar    1  UNL1        0.0163
     16 C         140.4248  142.4927  165.7023 C.ar    1  UNL1        0.0378
     17 C         140.4585  143.2436  169.3306 C.3     1  UNL1        0.2525
     18 O         141.2025  142.6390  168.1769 O.3     1  UNL1       -0.4714
     19 N         139.5657  144.0453  159.0614 N.am    1  UNL1       -0.2645
     20 C         140.6080  145.0361  158.6350 C.2     1  UNL1        0.2680
     21 O         141.6774  145.4607  159.5973 O.2     1  UNL1       -0.2681
     22 H         138.8638  143.7666  158.4298 H       1  UNL1        0.1566
     23 C         140.5809  145.6024  157.2462 C.ar    1  UNL1        0.1330
     24 C         139.6991  146.7165  156.7654 C.ar    1  UNL1        0.0458
     25 C         140.0040  146.9567  155.3165 C.ar    1  UNL1        0.1218
     26 N         141.0742  145.9910  154.9019 N.ar    1  UNL1       -0.1675
     27 N         141.4308  145.1540  156.0945 N.ar    1  UNL1       -0.2443
     28 C         142.4570  144.0605  156.1292 C.3     1  UNL1        0.1539
@<TRIPOS>BOND
     1    17    18    1
     2    18    10    1
     3    10    11   ar
     4    11    12   ar
     5    12    13   ar
     6    13    14    1
     7    13    15   ar
     8    15     1    1
     9     1     2   ar
    10     2     3   ar
    11     3     4   ar
    12     4    19    1
    13    19    20   am
    14    20    21    2
    15    20    23    1
    16    23    24   ar
    17    24    25   ar
    18    25    26   ar
    19    26    27   ar
    20    27    28    1
    21     4     5   ar
    22     5     6   ar
    23     6     7    1
    24    15    16   ar
    25    16    10   ar
    26     6     1   ar
    27    27    23   ar
    28    19    22    1
    29     7     8    1
    30     7     9    1
@<TRIPOS>MOLECULE
*****
 28 30 0 0 0
SMALL
GASTEIGER

@<TRIPOS>ATOM
      1 C         140.4542  139.3298  164.8531 C.ar    1  UNL1        0.0322
      2 C         139.8810  138.0245  164.3866 C.ar    1  UNL1        0.0057
      3 C         139.4289  137.8693  162.9647 C.ar    1  UNL1        0.0346
      4 C         139.5501  139.0194  162.0094 C.ar    1  UNL1        0.1358
      5 N         140.1233  140.3247  162.4760 N.ar    1  UNL1       -0.2163
      6 C         140.5754  140.4799  163.8977 C.ar    1  UNL1        0.1267
      7 N         141.1486  141.7852  164.3643 N.pl3   1  UNL1       -0.3426
      8 H         141.2281  142.5401  163.7373 H       1  UNL1        0.1437
      9 H         141.4453  141.8871  165.2975 H       1  UNL1        0.1437
     10 C         140.4112  140.1727  168.7309 C.ar    1  UNL1        0.1388
     11 C         141.8103  139.7956  169.1185 C.ar    1  UNL1        0.0378
     12 C         142.7574  139.2632  168.0843 C.ar    1  UNL1        0.0145
     13 C         142.3054  139.1079  166.6625 C.ar    1  UNL1        0.0579
     14 CL        143.2524  138.5755  165.6283 Cl      1  UNL1       -0.0822
     15 C         140.9063  139.4851  166.2749 C.ar    1  UNL1        0.0163
     16 C         139.9592  140.0175  167.3091 C.ar    1  UNL1        0.0378
     17 C         139.6638  142.0814  170.3272 C.3     1  UNL1        0.2525
     18 O         139.4641  140.7051  169.7651 O.3     1  UNL1       -0.4714
     19 N         139.0981  138.8642  160.5876 N.am    1  UNL1       -0.2645
     20 C         140.1060  138.8567  159.4768 C.2     1  UNL1        0.2680
     21 O         141.5660  139.0044  159.7878 O.2     1  UNL1       -0.2681
     22 H         138.1398  138.7672  160.3835 H       1  UNL1        0.1566
     23 C         139.6540  138.7015  158.0549 C.ar    1  UNL1        0.1330
     24 C         140.0015  137.5661  157.1382 C.ar    1  UNL1        0.0458
     25 C         139.3374  137.8173  155.8169 C.ar    1  UNL1        0.1218
     26 N         138.5795  139.1079  155.9170 N.ar    1  UNL1       -0.1675
     27 N         138.7751  139.6543  157.3001 N.ar    1  UNL1       -0.2443
     28 C         138.1939  140.9296  157.8346 C.3     1  UNL1        0.1539
@<TRIPOS>BOND
     1    17    18    1
     2    18    10    1
     3    10    11   ar
     4    11    12   ar
     5    12    13   ar
     6    13    14    1
     7    13    15   ar
     8    15     1    1
     9     1     2   ar
    10     2     3   ar
    11     3     4   ar
    12     4    19    1
    13    19    20   am
    14    20    21    2
    15    20    23    1
    16    23    24   ar
    17    24    25   ar
    18    25    26   ar
    19    26    27   ar
    20    27    28    1
    21     4     5   ar
    22     5     6   ar
    23     6     7    1
    24    15    16   ar
    25    16    10   ar
    26     6     1   ar
    27    27    23   ar
    28    19    22    1
    29     7     8    1
    30     7     9    1
