@<TRIPOS>MOLECULE
*****
 34 37 0 0 0
SMALL
GASTEIGER

@<TRIPOS>ATOM
      1 C         138.0782  141.6440  161.7215 C.ar    1  UNL1        0.1417
      2 C         138.3657  140.6923  162.8446 C.ar    1  UNL1        0.0743
      3 C         138.9285  139.3333  162.5505 C.ar    1  UNL1        0.1485
      4 C         139.2037  138.9260  161.1334 C.ar    1  UNL1        0.0422
      5 C         138.9161  139.8778  160.0103 C.ar    1  UNL1        0.0598
      6 C         138.3534  141.2368  160.3043 C.ar    1  UNL1        0.0416
      7 C         139.1913  139.4705  158.5930 C.2     1  UNL1        0.2511
      8 O         139.1472  140.4934  157.4968 O.2     1  UNL1       -0.2698
      9 N         139.5105  138.0405  158.2721 N.am    1  UNL1       -0.2606
     10 H         139.5394  137.3692  158.9916 H       1  UNL1        0.1571
     11 C         139.7857  137.6333  156.8548 C.ar    1  UNL1        0.1658
     12 N         138.7585  137.2356  155.8366 N.ar    1  UNL1       -0.2224
     13 C         139.4743  136.9088  154.5594 C.ar    1  UNL1        0.1079
     14 C         140.9438  137.1045  154.7885 C.ar    1  UNL1        0.0588
     15 S         141.1362  137.5523  156.2071 S.2     1  UNL1       -0.0508
     16 O         137.5154  143.0030  162.0155 O.3     1  UNL1       -0.4765
     17 C         137.7981  143.9491  164.4186 C.3     1  UNL1        0.0500
     18 C         138.2178  143.9132  162.9789 C.3     1  UNL1        0.1951
     19 C         139.3398  144.7875  162.5028 C.3     1  UNL1        0.1807
     20 O         139.0459  145.9909  161.6570 O.3     1  UNL1       -0.3785
     21 H         138.6883  145.7054  160.8017 H       1  UNL1        0.2106
     22 O         139.2160  138.3815  163.6737 O.3     1  UNL1       -0.4534
     23 C         139.3319  138.8930  165.0791 C.ar    1  UNL1        0.1453
     24 C         140.6064  139.5354  165.5407 C.ar    1  UNL1        0.0376
     25 C         140.7223  140.0469  166.9460 C.ar    1  UNL1        0.0076
     26 C         139.5637  139.9159  167.8897 C.ar    1  UNL1        0.0538
     27 C         138.2893  139.2735  167.4281 C.ar    1  UNL1        0.0076
     28 C         138.1734  138.7620  166.0228 C.ar    1  UNL1        0.0376
     29 C         139.6796  140.4274  169.2951 C.2     1  UNL1        0.2490
     30 O         139.4463  139.5014  170.4518 O.2     1  UNL1       -0.2699
     31 N         140.0287  141.8649  169.5436 N.am    1  UNL1       -0.2760
     32 C         140.3236  143.0506  168.6734 C.3     1  UNL1        0.0955
     33 C         140.5225  143.8978  169.8952 C.3     1  UNL1        0.0430
     34 C         140.2277  142.7121  170.7654 C.3     1  UNL1        0.0955
@<TRIPOS>BOND
     1    18    17    1
     2    18    19    1
     3    19    20    1
     4    18    16    1
     5    16     1    1
     6     1     2   ar
     7     2     3   ar
     8     3    22    1
     9    22    23    1
    10    23    24   ar
    11    24    25   ar
    12    25    26   ar
    13    26    29    1
    14    29    30    2
    15    29    31   am
    16    31    32    1
    17    32    33    1
    18    33    34    1
    19    26    27   ar
    20    27    28   ar
    21     3     4   ar
    22     4     5   ar
    23     5     7    1
    24     7     8    2
    25     7     9   am
    26     9    11    1
    27    11    12   ar
    28    12    13   ar
    29    13    14   ar
    30    14    15   ar
    31     5     6   ar
    32     6     1   ar
    33    28    23   ar
    34    15    11   ar
    35    34    31    1
    36    20    21    1
    37     9    10    1
@<TRIPOS>MOLECULE
*****
 34 37 0 0 0
SMALL
GASTEIGER

@<TRIPOS>ATOM
      1 C         144.4043  141.2257  162.6897 C.ar    1  UNL1        0.1417
      2 C         143.9406  140.3320  163.8016 C.ar    1  UNL1        0.0743
      3 C         143.3307  138.9982  163.4870 C.ar    1  UNL1        0.1485
      4 C         143.1845  138.5581  162.0605 C.ar    1  UNL1        0.0422
      5 C         143.6482  139.4517  160.9487 C.ar    1  UNL1        0.0598
      6 C         144.2581  140.7856  161.2633 C.ar    1  UNL1        0.0416
      7 C         143.5020  139.0116  159.5221 C.2     1  UNL1        0.2511
      8 O         144.1459  139.8039  158.4231 O.2     1  UNL1       -0.2698
      9 N         142.7119  137.7794  159.1946 N.am    1  UNL1       -0.2606
     10 H         142.2893  137.2594  159.9159 H       1  UNL1        0.1571
     11 C         142.5657  137.3393  157.7680 C.ar    1  UNL1        0.1658
     12 N         143.4686  136.3860  157.0426 N.ar    1  UNL1       -0.2224
     13 C         142.9519  136.2327  155.6427 C.ar    1  UNL1        0.1079
     14 C         141.7298  137.0913  155.5030 C.ar    1  UNL1        0.0588
     15 S         141.4912  137.7751  156.8166 S.2     1  UNL1       -0.0508
     16 O         145.0142  142.5595  163.0043 O.3     1  UNL1       -0.4765
     17 C         144.7257  143.6818  165.3297 C.3     1  UNL1        0.0500
     18 C         144.2934  143.5207  163.9024 C.3     1  UNL1        0.1951
     19 C         143.1402  144.3209  163.3731 C.3     1  UNL1        0.1807
     20 O         143.3001  145.1276  162.1187 O.3     1  UNL1       -0.3785
     21 H         143.9367  145.8429  162.2733 H       1  UNL1        0.2106
     22 O         142.8670  138.1045  164.5989 O.3     1  UNL1       -0.4534
     23 C         142.2470  138.6980  165.8291 C.ar    1  UNL1        0.1453
     24 C         140.8202  139.1602  165.8016 C.ar    1  UNL1        0.0376
     25 C         140.2003  139.7537  167.0318 C.ar    1  UNL1        0.0076
     26 C         141.0071  139.8850  168.2895 C.ar    1  UNL1        0.0538
     27 C         142.4338  139.4227  168.3171 C.ar    1  UNL1        0.0076
     28 C         143.0538  138.8292  167.0869 C.ar    1  UNL1        0.0376
     29 C         140.3871  140.4784  169.5197 C.2     1  UNL1        0.2490
     30 O         139.8243  139.5824  170.5829 O.2     1  UNL1       -0.2699
     31 N         140.3299  141.9681  169.6867 N.am    1  UNL1       -0.2760
     32 C         140.7723  143.1449  168.8686 C.3     1  UNL1        0.0955
     33 C         140.2489  144.0746  169.9230 C.3     1  UNL1        0.0430
     34 C         139.8066  142.8978  170.7411 C.3     1  UNL1        0.0955
@<TRIPOS>BOND
     1    18    17    1
     2    18    19    1
     3    19    20    1
     4    18    16    1
     5    16     1    1
     6     1     2   ar
     7     2     3   ar
     8     3    22    1
     9    22    23    1
    10    23    24   ar
    11    24    25   ar
    12    25    26   ar
    13    26    29    1
    14    29    30    2
    15    29    31   am
    16    31    32    1
    17    32    33    1
    18    33    34    1
    19    26    27   ar
    20    27    28   ar
    21     3     4   ar
    22     4     5   ar
    23     5     7    1
    24     7     8    2
    25     7     9   am
    26     9    11    1
    27    11    12   ar
    28    12    13   ar
    29    13    14   ar
    30    14    15   ar
    31     5     6   ar
    32     6     1   ar
    33    28    23   ar
    34    15    11   ar
    35    34    31    1
    36    20    21    1
    37     9    10    1
@<TRIPOS>MOLECULE
*****
 34 37 0 0 0
SMALL
GASTEIGER

@<TRIPOS>ATOM
      1 C         138.3586  140.8427  161.5694 C.ar    1  UNL1        0.1417
      2 C         138.4196  140.0023  162.8103 C.ar    1  UNL1        0.0743
      3 C         139.1220  138.6771  162.7849 C.ar    1  UNL1        0.1485
      4 C         139.7634  138.1924  161.5185 C.ar    1  UNL1        0.0422
      5 C         139.7024  139.0329  160.2776 C.ar    1  UNL1        0.0598
      6 C         139.0000  140.3580  160.3031 C.ar    1  UNL1        0.0416
      7 C         140.3438  138.5482  159.0112 C.2     1  UNL1        0.2511
      8 O         139.4915  138.1648  157.8379 O.2     1  UNL1       -0.2698
      9 N         141.8375  138.4470  158.9181 N.am    1  UNL1       -0.2606
     10 H         142.3969  138.6986  159.6882 H       1  UNL1        0.1571
     11 C         142.4789  137.9623  157.6517 C.ar    1  UNL1        0.1658
     12 N         142.8101  136.5373  157.3206 N.ar    1  UNL1       -0.2224
     13 C         143.4376  136.5118  155.9583 C.ar    1  UNL1        0.1079
     14 C         143.4942  137.9211  155.4476 C.ar    1  UNL1        0.0588
     15 S         142.9016  138.8175  156.4942 S.2     1  UNL1       -0.0508
     16 O         137.6563  142.1679  161.5949 O.3     1  UNL1       -0.4765
     17 C         137.6453  143.3565  163.9050 C.3     1  UNL1        0.0500
     18 C         138.1497  143.2611  162.4956 C.3     1  UNL1        0.1951
     19 C         139.1476  144.2589  161.9869 C.3     1  UNL1        0.1807
     20 O         139.3832  144.3990  160.5122 O.3     1  UNL1       -0.3785
     21 H         139.7802  143.5831  160.1693 H       1  UNL1        0.2106
     22 O         139.1830  137.8366  164.0258 O.3     1  UNL1       -0.4534
     23 C         139.2207  138.4922  165.3745 C.ar    1  UNL1        0.1453
     24 C         140.4771  139.1607  165.8486 C.ar    1  UNL1        0.0376
     25 C         140.5149  139.8162  167.1972 C.ar    1  UNL1        0.0076
     26 C         139.2962  139.8032  168.0718 C.ar    1  UNL1        0.0538
     27 C         138.0399  139.1348  167.5977 C.ar    1  UNL1        0.0076
     28 C         138.0022  138.4792  166.2491 C.ar    1  UNL1        0.0376
     29 C         139.3340  140.4588  169.4204 C.2     1  UNL1        0.2490
     30 O         138.8413  139.7183  170.6283 O.2     1  UNL1       -0.2699
     31 N         139.8644  141.8548  169.5612 N.am    1  UNL1       -0.2760
     32 C         140.4253  142.8766  168.6171 C.3     1  UNL1        0.0955
     33 C         140.6146  143.8291  169.7603 C.3     1  UNL1        0.0430
     34 C         140.0538  142.8072  170.7045 C.3     1  UNL1        0.0955
@<TRIPOS>BOND
     1    18    17    1
     2    18    19    1
     3    19    20    1
     4    18    16    1
     5    16     1    1
     6     1     2   ar
     7     2     3   ar
     8     3    22    1
     9    22    23    1
    10    23    24   ar
    11    24    25   ar
    12    25    26   ar
    13    26    29    1
    14    29    30    2
    15    29    31   am
    16    31    32    1
    17    32    33    1
    18    33    34    1
    19    26    27   ar
    20    27    28   ar
    21     3     4   ar
    22     4     5   ar
    23     5     7    1
    24     7     8    2
    25     7     9   am
    26     9    11    1
    27    11    12   ar
    28    12    13   ar
    29    13    14   ar
    30    14    15   ar
    31     5     6   ar
    32     6     1   ar
    33    28    23   ar
    34    15    11   ar
    35    34    31    1
    36    20    21    1
    37     9    10    1
@<TRIPOS>MOLECULE
*****
 34 37 0 0 0
SMALL
GASTEIGER

@<TRIPOS>ATOM
      1 C         138.1474  142.2701  161.7480 C.ar    1  UNL1        0.1417
      2 C         138.2151  141.2341  162.8306 C.ar    1  UNL1        0.0743
      3 C         138.5824  139.8195  162.4932 C.ar    1  UNL1        0.1485
      4 C         138.8820  139.4408  161.0731 C.ar    1  UNL1        0.0422
      5 C         138.8144  140.4767  159.9905 C.ar    1  UNL1        0.0598
      6 C         138.4471  141.8913  160.3279 C.ar    1  UNL1        0.0416
      7 C         139.1141  140.0980  158.5703 C.2     1  UNL1        0.2511
      8 O         140.4580  139.5368  158.2113 O.2     1  UNL1       -0.2698
      9 N         138.0698  140.2805  157.5091 N.am    1  UNL1       -0.2606
     10 H         137.1877  140.6489  157.7447 H       1  UNL1        0.1571
     11 C         138.3695  139.9018  156.0889 C.ar    1  UNL1        0.1658
     12 N         138.1268  138.5598  155.4644 N.ar    1  UNL1       -0.2224
     13 C         138.5717  138.6272  154.0334 C.ar    1  UNL1        0.1079
     14 C         139.0894  140.0109  153.7736 C.ar    1  UNL1        0.0588
     15 S         138.9644  140.7987  155.0440 S.2     1  UNL1       -0.0508
     16 O         137.7801  143.6847  162.0854 O.3     1  UNL1       -0.4765
     17 C         138.8971  144.7247  164.1879 C.3     1  UNL1        0.0500
     18 C         138.8002  144.5991  162.6964 C.3     1  UNL1        0.1951
     19 C         139.7234  145.3879  161.8157 C.3     1  UNL1        0.1807
     20 O         140.2080  146.7377  162.2552 O.3     1  UNL1       -0.3785
     21 H         139.4588  147.3524  162.2969 H       1  UNL1        0.2106
     22 O         138.6500  138.7835  163.5760 O.3     1  UNL1       -0.4534
     23 C         139.0788  139.1720  164.9599 C.ar    1  UNL1        0.1453
     24 C         138.0955  139.1217  166.0916 C.ar    1  UNL1        0.0376
     25 C         138.5243  139.5102  167.4755 C.ar    1  UNL1        0.0076
     26 C         139.9364  139.9489  167.7277 C.ar    1  UNL1        0.0538
     27 C         140.9196  139.9992  166.5960 C.ar    1  UNL1        0.0076
     28 C         140.4908  139.6107  165.2121 C.ar    1  UNL1        0.0376
     29 C         140.3652  140.3374  169.1116 C.2     1  UNL1        0.2490
     30 O         140.6256  139.2782  170.1412 O.2     1  UNL1       -0.2699
     31 N         140.5336  141.7853  169.4659 N.am    1  UNL1       -0.2760
     32 C         140.3714  143.0829  168.7312 C.3     1  UNL1        0.0955
     33 C         140.7718  143.8328  169.9670 C.3     1  UNL1        0.0430
     34 C         140.9341  142.5351  170.7018 C.3     1  UNL1        0.0955
@<TRIPOS>BOND
     1    18    17    1
     2    18    19    1
     3    19    20    1
     4    18    16    1
     5    16     1    1
     6     1     2   ar
     7     2     3   ar
     8     3    22    1
     9    22    23    1
    10    23    24   ar
    11    24    25   ar
    12    25    26   ar
    13    26    29    1
    14    29    30    2
    15    29    31   am
    16    31    32    1
    17    32    33    1
    18    33    34    1
    19    26    27   ar
    20    27    28   ar
    21     3     4   ar
    22     4     5   ar
    23     5     7    1
    24     7     8    2
    25     7     9   am
    26     9    11    1
    27    11    12   ar
    28    12    13   ar
    29    13    14   ar
    30    14    15   ar
    31     5     6   ar
    32     6     1   ar
    33    28    23   ar
    34    15    11   ar
    35    34    31    1
    36    20    21    1
    37     9    10    1
@<TRIPOS>MOLECULE
*****
 34 37 0 0 0
SMALL
GASTEIGER

@<TRIPOS>ATOM
      1 C         140.9471  141.5152  161.6813 C.ar    1  UNL1        0.1417
      2 C         140.5594  140.6237  162.8236 C.ar    1  UNL1        0.0743
      3 C         140.8024  139.1460  162.7376 C.ar    1  UNL1        0.1485
      4 C         141.4331  138.5598  161.5094 C.ar    1  UNL1        0.0422
      5 C         141.8208  139.4514  160.3671 C.ar    1  UNL1        0.0598
      6 C         141.5778  140.9291  160.4531 C.ar    1  UNL1        0.0416
      7 C         142.4515  138.8652  159.1388 C.2     1  UNL1        0.2511
      8 O         143.8856  139.1645  158.8165 O.2     1  UNL1       -0.2698
      9 N         141.6482  137.9798  158.2329 N.am    1  UNL1       -0.2606
     10 H         140.7070  137.7834  158.4445 H       1  UNL1        0.1571
     11 C         142.2790  137.3937  157.0046 C.ar    1  UNL1        0.1658
     12 N         142.2655  137.9990  155.6322 N.ar    1  UNL1       -0.2224
     13 C         143.0121  137.0788  154.7124 C.ar    1  UNL1        0.1079
     14 C         143.4869  135.9048  155.5165 C.ar    1  UNL1        0.0588
     15 S         143.0338  136.0995  156.9331 S.2     1  UNL1       -0.0508
     16 O         140.7040  142.9929  161.7673 O.3     1  UNL1       -0.4765
     17 C         140.2968  144.2380  164.0109 C.3     1  UNL1        0.0500
     18 C         139.7600  143.5391  162.7970 C.3     1  UNL1        0.1951
     19 C         138.2792  143.3863  162.6130 C.3     1  UNL1        0.1807
     20 O         137.4013  144.6012  162.5550 O.3     1  UNL1       -0.3785
     21 H         137.4126  145.0496  163.4150 H       1  UNL1        0.2106
     22 O         140.4147  138.2545  163.8800 O.3     1  UNL1       -0.4534
     23 C         140.2022  138.8358  165.2464 C.ar    1  UNL1        0.1453
     24 C         141.3754  139.3191  166.0465 C.ar    1  UNL1        0.0376
     25 C         141.1629  139.9004  167.4129 C.ar    1  UNL1        0.0076
     26 C         139.7772  139.9984  167.9791 C.ar    1  UNL1        0.0538
     27 C         138.6042  139.5151  167.1789 C.ar    1  UNL1        0.0076
     28 C         138.8167  138.9338  165.8126 C.ar    1  UNL1        0.0376
     29 C         139.5647  140.5797  169.3454 C.2     1  UNL1        0.2490
     30 O         138.9953  139.7293  170.4420 O.2     1  UNL1       -0.2699
     31 N         139.9217  142.0115  169.6152 N.am    1  UNL1       -0.2760
     32 C         140.4933  143.1338  168.8004 C.3     1  UNL1        0.0955
     33 C         140.4265  144.0363  169.9967 C.3     1  UNL1        0.0430
     34 C         139.8549  142.9140  170.8114 C.3     1  UNL1        0.0955
@<TRIPOS>BOND
     1    18    17    1
     2    18    19    1
     3    19    20    1
     4    18    16    1
     5    16     1    1
     6     1     2   ar
     7     2     3   ar
     8     3    22    1
     9    22    23    1
    10    23    24   ar
    11    24    25   ar
    12    25    26   ar
    13    26    29    1
    14    29    30    2
    15    29    31   am
    16    31    32    1
    17    32    33    1
    18    33    34    1
    19    26    27   ar
    20    27    28   ar
    21     3     4   ar
    22     4     5   ar
    23     5     7    1
    24     7     8    2
    25     7     9   am
    26     9    11    1
    27    11    12   ar
    28    12    13   ar
    29    13    14   ar
    30    14    15   ar
    31     5     6   ar
    32     6     1   ar
    33    28    23   ar
    34    15    11   ar
    35    34    31    1
    36    20    21    1
    37     9    10    1
@<TRIPOS>MOLECULE
*****
 34 37 0 0 0
SMALL
GASTEIGER

@<TRIPOS>ATOM
      1 C         142.3678  141.4589  161.8300 C.ar    1  UNL1        0.1417
      2 C         141.8480  140.5628  162.9148 C.ar    1  UNL1        0.0743
      3 C         141.6936  139.0921  162.6630 C.ar    1  UNL1        0.1485
      4 C         142.0590  138.5176  161.3265 C.ar    1  UNL1        0.0422
      5 C         142.5787  139.4137  160.2417 C.ar    1  UNL1        0.0598
      6 C         142.7331  140.8843  160.4935 C.ar    1  UNL1        0.0416
      7 C         142.9441  138.8392  158.9051 C.2     1  UNL1        0.2511
      8 O         144.0374  139.4671  158.0924 O.2     1  UNL1       -0.2698
      9 N         142.2162  137.6368  158.3812 N.am    1  UNL1       -0.2606
     10 H         141.4987  137.2247  158.9146 H       1  UNL1        0.1571
     11 C         142.5816  137.0623  157.0446 C.ar    1  UNL1        0.1658
     12 N         142.3719  137.7225  155.7141 N.ar    1  UNL1       -0.2224
     13 C         142.8815  136.7950  154.6510 C.ar    1  UNL1        0.1079
     14 C         143.4061  135.5616  155.3246 C.ar    1  UNL1        0.0588
     15 S         143.2207  135.7268  156.8039 S.2     1  UNL1       -0.0508
     16 O         142.5222  142.9295  162.0817 O.3     1  UNL1       -0.4765
     17 C         143.6750  144.8384  163.4149 C.3     1  UNL1        0.0500
     18 C         143.6836  143.4350  162.8852 C.3     1  UNL1        0.1951
     19 C         144.8537  142.5372  163.1590 C.3     1  UNL1        0.1807
     20 O         145.8225  142.2119  162.0610 O.3     1  UNL1       -0.3785
     21 H         145.3735  141.6897  161.3779 H       1  UNL1        0.2106
     22 O         141.1739  138.1960  163.7479 O.3     1  UNL1       -0.4534
     23 C         140.7779  138.7753  165.0737 C.ar    1  UNL1        0.1453
     24 C         141.8325  139.1716  166.0641 C.ar    1  UNL1        0.0376
     25 C         141.4365  139.7509  167.3898 C.ar    1  UNL1        0.0076
     26 C         139.9859  139.9339  167.7252 C.ar    1  UNL1        0.0538
     27 C         138.9314  139.5376  166.7348 C.ar    1  UNL1        0.0076
     28 C         139.3274  138.9583  165.4090 C.ar    1  UNL1        0.0376
     29 C         139.5899  140.5132  169.0509 C.2     1  UNL1        0.2490
     30 O         138.8057  139.6866  170.0265 O.2     1  UNL1       -0.2699
     31 N         139.9781  141.9192  169.4011 N.am    1  UNL1       -0.2760
     32 C         140.7344  143.0144  168.7092 C.3     1  UNL1        0.0955
     33 C         140.5271  143.9075  169.8964 C.3     1  UNL1        0.0430
     34 C         139.7708  142.8124  170.5882 C.3     1  UNL1        0.0955
@<TRIPOS>BOND
     1    18    17    1
     2    18    19    1
     3    19    20    1
     4    18    16    1
     5    16     1    1
     6     1     2   ar
     7     2     3   ar
     8     3    22    1
     9    22    23    1
    10    23    24   ar
    11    24    25   ar
    12    25    26   ar
    13    26    29    1
    14    29    30    2
    15    29    31   am
    16    31    32    1
    17    32    33    1
    18    33    34    1
    19    26    27   ar
    20    27    28   ar
    21     3     4   ar
    22     4     5   ar
    23     5     7    1
    24     7     8    2
    25     7     9   am
    26     9    11    1
    27    11    12   ar
    28    12    13   ar
    29    13    14   ar
    30    14    15   ar
    31     5     6   ar
    32     6     1   ar
    33    28    23   ar
    34    15    11   ar
    35    34    31    1
    36    20    21    1
    37     9    10    1
@<TRIPOS>MOLECULE
*****
 34 37 0 0 0
SMALL
GASTEIGER

@<TRIPOS>ATOM
      1 C         142.5259  138.9457  160.1935 C.ar    1  UNL1        0.1417
      2 C         141.2054  139.1058  160.8869 C.ar    1  UNL1        0.0743
      3 C         139.9328  138.7880  160.1592 C.ar    1  UNL1        0.1485
      4 C         139.9806  138.3101  158.7382 C.ar    1  UNL1        0.0422
      5 C         141.3010  138.1501  158.0448 C.ar    1  UNL1        0.0598
      6 C         142.5737  138.4679  158.7725 C.ar    1  UNL1        0.0416
      7 C         141.3489  137.6722  156.6238 C.2     1  UNL1        0.2511
      8 O         142.0379  138.4975  155.5778 O.2     1  UNL1       -0.2698
      9 N         140.7077  136.3690  156.2487 N.am    1  UNL1       -0.2606
     10 H         140.2555  135.8273  156.9353 H       1  UNL1        0.1571
     11 C         140.7556  135.8911  154.8276 C.ar    1  UNL1        0.1658
     12 N         139.9428  136.4308  153.6882 N.ar    1  UNL1       -0.2224
     13 C         140.3095  135.6629  152.4529 C.ar    1  UNL1        0.1079
     14 C         141.3488  134.6487  152.8289 C.ar    1  UNL1        0.0588
     15 S         141.6245  134.7898  154.2966 S.2     1  UNL1       -0.0508
     16 O         143.7985  139.2635  160.9211 O.3     1  UNL1       -0.4765
     17 C         143.7764  141.7920  160.3244 C.3     1  UNL1        0.0500
     18 C         144.1264  140.6842  161.2733 C.3     1  UNL1        0.1951
     19 C         144.8042  140.9972  162.5743 C.3     1  UNL1        0.1807
     20 O         146.0088  141.8906  162.5965 O.3     1  UNL1       -0.3785
     21 H         146.7416  141.4570  162.1319 H       1  UNL1        0.2106
     22 O         138.6124  138.9481  160.8527 O.3     1  UNL1       -0.4534
     23 C         138.5497  138.9673  162.3513 C.ar    1  UNL1        0.1453
     24 C         138.9227  137.7427  163.1332 C.ar    1  UNL1        0.0376
     25 C         138.8601  137.7619  164.6318 C.ar    1  UNL1        0.0076
     26 C         138.4244  139.0056  165.3484 C.ar    1  UNL1        0.0538
     27 C         138.0514  140.2301  164.5664 C.ar    1  UNL1        0.0076
     28 C         138.1140  140.2109  163.0679 C.ar    1  UNL1        0.0376
     29 C         138.3618  139.0248  166.8470 C.2     1  UNL1        0.2490
     30 O         137.3980  138.1303  167.5688 O.2     1  UNL1       -0.2699
     31 N         139.2629  139.9385  167.6237 N.am    1  UNL1       -0.2760
     32 C         140.3191  140.9418  167.2664 C.3     1  UNL1        0.0955
     33 C         140.5373  141.2305  168.7221 C.3     1  UNL1        0.0430
     34 C         139.4810  140.2271  169.0794 C.3     1  UNL1        0.0955
@<TRIPOS>BOND
     1    18    17    1
     2    18    19    1
     3    19    20    1
     4    18    16    1
     5    16     1    1
     6     1     2   ar
     7     2     3   ar
     8     3    22    1
     9    22    23    1
    10    23    24   ar
    11    24    25   ar
    12    25    26   ar
    13    26    29    1
    14    29    30    2
    15    29    31   am
    16    31    32    1
    17    32    33    1
    18    33    34    1
    19    26    27   ar
    20    27    28   ar
    21     3     4   ar
    22     4     5   ar
    23     5     7    1
    24     7     8    2
    25     7     9   am
    26     9    11    1
    27    11    12   ar
    28    12    13   ar
    29    13    14   ar
    30    14    15   ar
    31     5     6   ar
    32     6     1   ar
    33    28    23   ar
    34    15    11   ar
    35    34    31    1
    36    20    21    1
    37     9    10    1
@<TRIPOS>MOLECULE
*****
 34 37 0 0 0
SMALL
GASTEIGER

@<TRIPOS>ATOM
      1 C         140.9818  138.4392  160.8130 C.ar    1  UNL1        0.1417
      2 C         141.7791  138.3135  162.0773 C.ar    1  UNL1        0.0743
      3 C         143.2217  138.7239  162.0982 C.ar    1  UNL1        0.1485
      4 C         143.8671  139.2599  160.8548 C.ar    1  UNL1        0.0422
      5 C         143.0699  139.3856  159.5905 C.ar    1  UNL1        0.0598
      6 C         141.6272  138.9753  159.5696 C.ar    1  UNL1        0.0416
      7 C         143.7152  139.9216  158.3470 C.2     1  UNL1        0.2511
      8 O         143.8393  139.0514  157.1316 O.2     1  UNL1       -0.2698
      9 N         144.2365  141.3278  158.3190 N.am    1  UNL1       -0.2606
     10 H         144.1551  141.8990  159.1168 H       1  UNL1        0.1571
     11 C         144.8819  141.8639  157.0755 C.ar    1  UNL1        0.1658
     12 N         146.3544  142.0455  156.8546 N.ar    1  UNL1       -0.2224
     13 C         146.5507  142.6063  155.4772 C.ar    1  UNL1        0.1079
     14 C         145.1994  142.7712  154.8470 C.ar    1  UNL1        0.0588
     15 S         144.1681  142.3124  155.8348 S.2     1  UNL1       -0.0508
     16 O         139.5392  138.0289  160.7921 O.3     1  UNL1       -0.4765
     17 C         138.2148  139.0733  162.7683 C.3     1  UNL1        0.0500
     18 C         138.4847  138.9689  161.2965 C.3     1  UNL1        0.1951
     19 C         137.7000  139.8046  160.3290 C.3     1  UNL1        0.1807
     20 O         138.0676  139.8124  158.8748 O.3     1  UNL1       -0.3785
     21 H         138.9429  140.2155  158.7646 H       1  UNL1        0.2106
     22 O         144.0190  138.5981  163.3627 O.3     1  UNL1       -0.4534
     23 C         143.5892  139.3347  164.5967 C.ar    1  UNL1        0.1453
     24 C         143.3560  138.5848  165.8747 C.ar    1  UNL1        0.0376
     25 C         142.9262  139.3213  167.1087 C.ar    1  UNL1        0.0076
     26 C         142.7295  140.8078  167.0646 C.ar    1  UNL1        0.0538
     27 C         142.9627  141.5576  165.7866 C.ar    1  UNL1        0.0076
     28 C         143.3925  140.8210  164.5526 C.ar    1  UNL1        0.0376
     29 C         142.2997  141.5443  168.2986 C.2     1  UNL1        0.2490
     30 O         143.1681  142.6278  168.8661 O.2     1  UNL1       -0.2699
     31 N         141.0014  141.1974  168.9652 N.am    1  UNL1       -0.2760
     32 C         139.9044  140.2091  168.7011 C.3     1  UNL1        0.0955
     33 C         139.1655  140.7069  169.9078 C.3     1  UNL1        0.0430
     34 C         140.2625  141.6952  170.1719 C.3     1  UNL1        0.0955
@<TRIPOS>BOND
     1    18    17    1
     2    18    19    1
     3    19    20    1
     4    18    16    1
     5    16     1    1
     6     1     2   ar
     7     2     3   ar
     8     3    22    1
     9    22    23    1
    10    23    24   ar
    11    24    25   ar
    12    25    26   ar
    13    26    29    1
    14    29    30    2
    15    29    31   am
    16    31    32    1
    17    32    33    1
    18    33    34    1
    19    26    27   ar
    20    27    28   ar
    21     3     4   ar
    22     4     5   ar
    23     5     7    1
    24     7     8    2
    25     7     9   am
    26     9    11    1
    27    11    12   ar
    28    12    13   ar
    29    13    14   ar
    30    14    15   ar
    31     5     6   ar
    32     6     1   ar
    33    28    23   ar
    34    15    11   ar
    35    34    31    1
    36    20    21    1
    37     9    10    1
@<TRIPOS>MOLECULE
*****
 34 37 0 0 0
SMALL
GASTEIGER

@<TRIPOS>ATOM
      1 C         142.3623  140.1036  159.9785 C.ar    1  UNL1        0.1417
      2 C         141.0327  139.9582  160.6573 C.ar    1  UNL1        0.0743
      3 C         140.0468  138.9402  160.1656 C.ar    1  UNL1        0.1485
      4 C         140.3906  138.0676  158.9950 C.ar    1  UNL1        0.0422
      5 C         141.7203  138.2129  158.3162 C.ar    1  UNL1        0.0598
      6 C         142.7061  139.2309  158.8079 C.ar    1  UNL1        0.0416
      7 C         142.0642  137.3403  157.1456 C.2     1  UNL1        0.2511
      8 O         143.4780  137.2748  156.6486 O.2     1  UNL1       -0.2698
      9 N         140.9943  136.5331  156.4719 N.am    1  UNL1       -0.2606
     10 H         140.0664  136.5761  156.7981 H       1  UNL1        0.1571
     11 C         141.3382  135.6605  155.3013 C.ar    1  UNL1        0.1658
     12 N         141.3059  136.0683  153.8582 N.ar    1  UNL1       -0.2224
     13 C         141.7225  134.8867  153.0332 C.ar    1  UNL1        0.1079
     14 C         142.0121  133.7487  153.9666 C.ar    1  UNL1        0.0588
     15 S         141.7746  134.2270  155.3683 S.2     1  UNL1       -0.0508
     16 O         143.3482  141.1216  160.4702 O.3     1  UNL1       -0.4765
     17 C         144.7656  142.5476  158.8248 C.3     1  UNL1        0.0500
     18 C         143.5593  142.3930  159.7028 C.3     1  UNL1        0.1951
     19 C         142.5640  143.5098  159.8134 C.3     1  UNL1        0.1807
     20 O         142.5599  144.6140  158.7982 O.3     1  UNL1       -0.3785
     21 H         143.3829  145.1223  158.8700 H       1  UNL1        0.2106
     22 O         138.7171  138.7949  160.8444 O.3     1  UNL1       -0.4534
     23 C         138.6283  138.8553  162.3406 C.ar    1  UNL1        0.1453
     24 C         138.0883  140.0838  163.0109 C.ar    1  UNL1        0.0376
     25 C         137.9996  140.1441  164.5071 C.ar    1  UNL1        0.0076
     26 C         138.4508  138.9760  165.3329 C.ar    1  UNL1        0.0538
     27 C         138.9907  137.7475  164.6626 C.ar    1  UNL1        0.0076
     28 C         139.0795  137.6872  163.1664 C.ar    1  UNL1        0.0376
     29 C         138.3620  139.0363  166.8291 C.2     1  UNL1        0.2490
     30 O         137.3577  138.1915  167.5555 O.2     1  UNL1       -0.2699
     31 N         139.2776  139.9415  167.5988 N.am    1  UNL1       -0.2760
     32 C         140.3712  140.9018  167.2358 C.3     1  UNL1        0.0955
     33 C         140.5723  141.2215  168.6874 C.3     1  UNL1        0.0430
     34 C         139.4787  140.2613  169.0505 C.3     1  UNL1        0.0955
@<TRIPOS>BOND
     1    18    17    1
     2    18    19    1
     3    19    20    1
     4    18    16    1
     5    16     1    1
     6     1     2   ar
     7     2     3   ar
     8     3    22    1
     9    22    23    1
    10    23    24   ar
    11    24    25   ar
    12    25    26   ar
    13    26    29    1
    14    29    30    2
    15    29    31   am
    16    31    32    1
    17    32    33    1
    18    33    34    1
    19    26    27   ar
    20    27    28   ar
    21     3     4   ar
    22     4     5   ar
    23     5     7    1
    24     7     8    2
    25     7     9   am
    26     9    11    1
    27    11    12   ar
    28    12    13   ar
    29    13    14   ar
    30    14    15   ar
    31     5     6   ar
    32     6     1   ar
    33    28    23   ar
    34    15    11   ar
    35    34    31    1
    36    20    21    1
    37     9    10    1
