@<TRIPOS>MOLECULE
*****
 38 41 0 0 0
SMALL
GASTEIGER

@<TRIPOS>ATOM
      1 C         142.5620  137.2059  157.3714 C.ar    1  UNL1        0.2245
      2 N         141.3625  137.9218  156.8250 N.ar    1  UNL1       -0.1912
      3 C         140.5523  138.8159  157.7162 C.ar    1  UNL1        0.2037
      4 N         140.9416  138.9940  159.1538 N.ar    1  UNL1       -0.1912
      5 C         142.1412  138.2780  159.7002 C.ar    1  UNL1        0.2240
      6 N         142.9514  137.3840  158.8090 N.ar    1  UNL1       -0.1806
      7 N         142.5305  138.4561  161.1378 N.pl3   1  UNL1       -0.2779
      8 C         143.7781  139.2112  161.4889 C.3     1  UNL1        0.0973
      9 C         144.1674  139.3893  162.9265 C.3     1  UNL1        0.0651
     10 C         143.3091  138.8123  164.0130 C.3     1  UNL1        0.1693
     11 C         142.0615  138.0572  163.6619 C.3     1  UNL1        0.0651
     12 C         141.6722  137.8792  162.2242 C.3     1  UNL1        0.0973
     13 O         143.6984  138.9904  165.4506 O.3     1  UNL1       -0.4791
     14 C         142.7946  139.7386  166.3852 C.ar    1  UNL1        0.1386
     15 C         141.9493  140.8653  165.8696 C.ar    1  UNL1        0.0400
     16 C         141.0456  141.6135  166.8042 C.ar    1  UNL1        0.0403
     17 C         140.9872  141.2349  168.2544 C.ar    1  UNL1        0.1470
     18 C         141.8325  140.1082  168.7701 C.ar    1  UNL1        0.0403
     19 C         142.7362  139.3600  167.8355 C.ar    1  UNL1        0.0400
     20 O         140.0834  141.9831  169.1891 O.3     1  UNL1       -0.4045
     21 C         140.4954  143.3255  169.7166 C.3     1  UNL1        0.5753
     22 F         140.9074  144.6679  170.2441 F       1  UNL1       -0.1328
     23 F         139.9474  143.9786  168.4825 F       1  UNL1       -0.1328
     24 F         141.0434  142.6723  170.9507 F       1  UNL1       -0.1328
     25 N         143.3722  136.3118  156.4802 N.pl3   1  UNL1       -0.2826
     26 H         144.2514  136.6095  156.1523 H       1  UNL1        0.1551
     27 C         142.6425  132.4111  156.5270 C.ar    1  UNL1        0.0474
     28 C         141.7837  132.2687  155.3054 C.ar    1  UNL1        0.0144
     29 C         141.4545  133.4740  154.4754 C.ar    1  UNL1        0.0025
     30 C         141.9839  134.8217  154.8670 C.ar    1  UNL1        0.0144
     31 C         142.8427  134.9641  156.0885 C.ar    1  UNL1        0.0476
     32 C         143.1719  133.7588  156.9185 C.ar    1  UNL1        0.0051
     33 C         144.0307  133.9013  158.1401 C.3     1  UNL1        0.0336
     34 C         144.5408  129.2071  157.8983 C.3     1  UNL1        0.0949
     35 C         144.2115  130.4123  157.0683 C.2     1  UNL1        0.2266
     36 O         145.1220  130.8241  155.9496 O.2     1  UNL1       -0.2748
     37 N         142.9718  131.2058  157.3569 N.am    1  UNL1       -0.2841
     38 H         142.3742  130.9356  158.0912 H       1  UNL1        0.1548
@<TRIPOS>BOND
     1    34    35    1
     2    35    36    2
     3    35    37   am
     4    37    27    1
     5    27    28   ar
     6    28    29   ar
     7    29    30   ar
     8    30    31   ar
     9    31    25    1
    10    25     1    1
    11     1     2   ar
    12     2     3   ar
    13     3     4   ar
    14     4     5   ar
    15     5     7    1
    16     7     8    1
    17     8     9    1
    18     9    10    1
    19    10    13    1
    20    13    14    1
    21    14    15   ar
    22    15    16   ar
    23    16    17   ar
    24    17    20    1
    25    20    21    1
    26    21    22    1
    27    21    23    1
    28    21    24    1
    29    17    18   ar
    30    18    19   ar
    31    10    11    1
    32    11    12    1
    33     5     6   ar
    34    31    32   ar
    35    32    33    1
    36    32    27   ar
    37     6     1   ar
    38    12     7    1
    39    19    14   ar
    40    37    38    1
    41    25    26    1
@<TRIPOS>MOLECULE
*****
 38 41 0 0 0
SMALL
GASTEIGER

@<TRIPOS>ATOM
      1 C         142.3610  136.9564  157.1225 C.ar    1  UNL1        0.2245
      2 N         141.0111  137.4481  156.6916 N.ar    1  UNL1       -0.1912
      3 C         140.2098  138.3325  157.6002 C.ar    1  UNL1        0.2037
      4 N         140.7585  138.7253  158.9399 N.ar    1  UNL1       -0.1912
      5 C         142.1085  138.2336  159.3709 C.ar    1  UNL1        0.2240
      6 N         142.9098  137.3492  158.4622 N.ar    1  UNL1       -0.1806
      7 N         142.6572  138.6264  160.7105 N.pl3   1  UNL1       -0.2779
      8 C         142.1269  137.9815  161.9566 C.3     1  UNL1        0.0973
      9 C         142.6756  138.3743  163.2962 C.3     1  UNL1        0.0651
     10 C         143.7547  139.4120  163.3898 C.3     1  UNL1        0.1693
     11 C         144.2850  140.0570  162.1437 C.3     1  UNL1        0.0651
     12 C         143.7362  139.6641  160.8040 C.3     1  UNL1        0.0973
     13 O         144.3033  139.8048  164.7294 O.3     1  UNL1       -0.4791
     14 C         143.3730  140.2394  165.8228 C.ar    1  UNL1        0.1386
     15 C         142.9188  141.6670  165.8979 C.ar    1  UNL1        0.0400
     16 C         141.9885  142.1016  166.9913 C.ar    1  UNL1        0.0403
     17 C         141.5123  141.1086  168.0097 C.ar    1  UNL1        0.1470
     18 C         141.9664  139.6809  167.9347 C.ar    1  UNL1        0.0403
     19 C         142.8968  139.2463  166.8412 C.ar    1  UNL1        0.0400
     20 O         140.5820  141.5432  169.1031 O.3     1  UNL1       -0.4045
     21 C         140.1387  140.5600  170.1456 C.3     1  UNL1        0.5753
     22 F         139.6953  139.5767  171.1881 F       1  UNL1       -0.1328
     23 F         141.3636  140.8662  170.9553 F       1  UNL1       -0.1328
     24 F         138.9137  140.2537  169.3359 F       1  UNL1       -0.1328
     25 N         143.1623  136.0719  156.2139 N.pl3   1  UNL1       -0.2826
     26 H         143.9891  136.4108  155.8005 H       1  UNL1        0.1551
     27 C         142.6710  132.1488  156.5567 C.ar    1  UNL1        0.0474
     28 C         141.7871  131.8697  155.3773 C.ar    1  UNL1        0.0144
     29 C         141.3616  132.9913  154.4768 C.ar    1  UNL1        0.0025
     30 C         141.8200  134.3921  154.7556 C.ar    1  UNL1        0.0144
     31 C         142.7039  134.6712  155.9350 C.ar    1  UNL1        0.0476
     32 C         143.1293  133.5495  156.8355 C.ar    1  UNL1        0.0051
     33 C         144.0133  133.8287  158.0149 C.3     1  UNL1        0.0336
     34 C         144.7330  129.0887  158.0173 C.3     1  UNL1        0.0949
     35 C         144.3076  130.2103  157.1168 C.2     1  UNL1        0.2266
     36 O         145.0933  130.5152  155.8759 O.2     1  UNL1       -0.2748
     37 N         143.0964  131.0272  157.4572 N.am    1  UNL1       -0.2841
     38 H         142.5807  130.8271  158.2716 H       1  UNL1        0.1548
@<TRIPOS>BOND
     1    34    35    1
     2    35    36    2
     3    35    37   am
     4    37    27    1
     5    27    28   ar
     6    28    29   ar
     7    29    30   ar
     8    30    31   ar
     9    31    25    1
    10    25     1    1
    11     1     2   ar
    12     2     3   ar
    13     3     4   ar
    14     4     5   ar
    15     5     7    1
    16     7     8    1
    17     8     9    1
    18     9    10    1
    19    10    13    1
    20    13    14    1
    21    14    15   ar
    22    15    16   ar
    23    16    17   ar
    24    17    20    1
    25    20    21    1
    26    21    22    1
    27    21    23    1
    28    21    24    1
    29    17    18   ar
    30    18    19   ar
    31    10    11    1
    32    11    12    1
    33     5     6   ar
    34    31    32   ar
    35    32    33    1
    36    32    27   ar
    37     6     1   ar
    38    12     7    1
    39    19    14   ar
    40    37    38    1
    41    25    26    1
@<TRIPOS>MOLECULE
*****
 38 41 0 0 0
SMALL
GASTEIGER

@<TRIPOS>ATOM
      1 C         142.2763  137.8606  157.2774 C.ar    1  UNL1        0.2245
      2 N         141.8464  138.9010  156.2861 N.ar    1  UNL1       -0.1912
      3 C         140.8294  139.9327  156.6750 C.ar    1  UNL1        0.2037
      4 N         140.2423  139.9240  158.0553 N.ar    1  UNL1       -0.1912
      5 C         140.6722  138.8836  159.0467 C.ar    1  UNL1        0.2240
      6 N         141.6892  137.8519  158.6577 N.ar    1  UNL1       -0.1806
      7 N         140.0850  138.8749  160.4270 N.pl3   1  UNL1       -0.2779
      8 C         138.8304  139.6456  160.7132 C.3     1  UNL1        0.0973
      9 C         138.2433  139.6369  162.0935 C.3     1  UNL1        0.0651
     10 C         138.9108  138.8575  163.1876 C.3     1  UNL1        0.1693
     11 C         140.1655  138.0869  162.9014 C.3     1  UNL1        0.0651
     12 C         140.7526  138.0956  161.5210 C.3     1  UNL1        0.0973
     13 O         138.3237  138.8489  164.5679 O.3     1  UNL1       -0.4791
     14 C         138.9849  139.6237  165.6690 C.ar    1  UNL1        0.1386
     15 C         138.7482  139.2432  167.1005 C.ar    1  UNL1        0.0400
     16 C         139.4093  140.0180  168.2017 C.ar    1  UNL1        0.0403
     17 C         140.3072  141.1733  167.8713 C.ar    1  UNL1        0.1470
     18 C         140.5439  141.5538  166.4398 C.ar    1  UNL1        0.0403
     19 C         139.8828  140.7790  165.3386 C.ar    1  UNL1        0.0400
     20 O         140.9683  141.9481  168.9725 O.3     1  UNL1       -0.4045
     21 C         140.1330  142.6817  169.9795 C.3     1  UNL1        0.5753
     22 F         139.2977  143.4155  170.9864 F       1  UNL1       -0.1328
     23 F         140.2226  141.5079  170.9090 F       1  UNL1       -0.1328
     24 F         140.0435  143.8556  169.0499 F       1  UNL1       -0.1328
     25 N         143.2933  136.8289  156.8884 N.pl3   1  UNL1       -0.2826
     26 H         144.2535  137.0222  156.9879 H       1  UNL1        0.1551
     27 C         142.6972  132.9183  156.5689 C.ar    1  UNL1        0.0474
     28 C         141.9553  132.8501  155.2670 C.ar    1  UNL1        0.0144
     29 C         141.6594  134.1082  154.5056 C.ar    1  UNL1        0.0025
     30 C         142.1054  135.4344  155.0460 C.ar    1  UNL1        0.0144
     31 C         142.8472  135.5026  156.3479 C.ar    1  UNL1        0.0476
     32 C         143.1431  134.2446  157.1093 C.ar    1  UNL1        0.0051
     33 C         143.8850  134.3128  158.4113 C.3     1  UNL1        0.0336
     34 C         144.6035  129.7044  157.9054 C.3     1  UNL1        0.0949
     35 C         144.3077  130.9624  157.1440 C.2     1  UNL1        0.2266
     36 O         145.3265  131.5226  156.1962 O.2     1  UNL1       -0.2748
     37 N         142.9930  131.6603  157.3303 N.am    1  UNL1       -0.2841
     38 H         142.3244  131.2926  157.9524 H       1  UNL1        0.1548
@<TRIPOS>BOND
     1    34    35    1
     2    35    36    2
     3    35    37   am
     4    37    27    1
     5    27    28   ar
     6    28    29   ar
     7    29    30   ar
     8    30    31   ar
     9    31    25    1
    10    25     1    1
    11     1     2   ar
    12     2     3   ar
    13     3     4   ar
    14     4     5   ar
    15     5     7    1
    16     7     8    1
    17     8     9    1
    18     9    10    1
    19    10    13    1
    20    13    14    1
    21    14    15   ar
    22    15    16   ar
    23    16    17   ar
    24    17    20    1
    25    20    21    1
    26    21    22    1
    27    21    23    1
    28    21    24    1
    29    17    18   ar
    30    18    19   ar
    31    10    11    1
    32    11    12    1
    33     5     6   ar
    34    31    32   ar
    35    32    33    1
    36    32    27   ar
    37     6     1   ar
    38    12     7    1
    39    19    14   ar
    40    37    38    1
    41    25    26    1
@<TRIPOS>MOLECULE
*****
 38 41 0 0 0
SMALL
GASTEIGER

@<TRIPOS>ATOM
      1 C         143.3382  137.4837  156.5372 C.ar    1  UNL1        0.2245
      2 N         143.1171  138.7728  155.8030 N.ar    1  UNL1       -0.1912
      3 C         142.3491  139.8846  156.4541 C.ar    1  UNL1        0.2037
      4 N         141.8021  139.7073  157.8395 N.ar    1  UNL1       -0.1912
      5 C         142.0231  138.4181  158.5738 C.ar    1  UNL1        0.2240
      6 N         142.7912  137.3063  157.9227 N.ar    1  UNL1       -0.1806
      7 N         141.4761  138.2407  159.9592 N.pl3   1  UNL1       -0.2779
      8 C         140.0146  138.4532  160.2213 C.3     1  UNL1        0.0973
      9 C         139.4676  138.2759  161.6067 C.3     1  UNL1        0.0651
     10 C         140.3822  137.8860  162.7300 C.3     1  UNL1        0.1693
     11 C         141.8437  137.6736  162.4678 C.3     1  UNL1        0.0651
     12 C         142.3907  137.8509  161.0823 C.3     1  UNL1        0.0973
     13 O         139.8352  137.7087  164.1154 O.3     1  UNL1       -0.4791
     14 C         140.3866  138.5213  165.2492 C.ar    1  UNL1        0.1386
     15 C         141.8573  138.4974  165.5433 C.ar    1  UNL1        0.0400
     16 C         142.4087  139.3100  166.6771 C.ar    1  UNL1        0.0403
     17 C         141.4895  140.1466  167.5168 C.ar    1  UNL1        0.1470
     18 C         140.0187  140.1706  167.2227 C.ar    1  UNL1        0.0403
     19 C         139.4673  139.3580  166.0889 C.ar    1  UNL1        0.0400
     20 O         142.0409  140.9593  168.6506 O.3     1  UNL1       -0.4045
     21 C         142.6984  140.2760  169.8128 C.3     1  UNL1        0.5753
     22 F         143.3558  139.5926  170.9751 F       1  UNL1       -0.1328
     23 F         143.7601  141.3353  169.8350 F       1  UNL1       -0.1328
     24 F         141.6367  139.2166  169.7906 F       1  UNL1       -0.1328
     25 N         144.1062  136.3718  155.8861 N.pl3   1  UNL1       -0.2826
     26 H         145.0823  136.4441  155.7801 H       1  UNL1        0.1551
     27 C         142.6495  132.6830  155.7433 C.ar    1  UNL1        0.0474
     28 C         141.9486  132.7061  154.4173 C.ar    1  UNL1        0.0144
     29 C         141.9669  133.9512  153.5809 C.ar    1  UNL1        0.0025
     30 C         142.6861  135.1731  154.0705 C.ar    1  UNL1        0.0144
     31 C         143.3870  135.1499  155.3964 C.ar    1  UNL1        0.0476
     32 C         143.3687  133.9049  156.2328 C.ar    1  UNL1        0.0051
     33 C         144.0696  133.8818  157.5588 C.3     1  UNL1        0.0336
     34 C         143.7470  129.2150  157.3303 C.3     1  UNL1        0.0949
     35 C         143.7653  130.4600  156.4939 C.2     1  UNL1        0.2266
     36 O         144.9178  130.7272  155.5717 O.2     1  UNL1       -0.2748
     37 N         142.6312  131.4379  156.5796 N.am    1  UNL1       -0.2841
     38 H         141.8748  131.2626  157.1849 H       1  UNL1        0.1548
@<TRIPOS>BOND
     1    34    35    1
     2    35    36    2
     3    35    37   am
     4    37    27    1
     5    27    28   ar
     6    28    29   ar
     7    29    30   ar
     8    30    31   ar
     9    31    25    1
    10    25     1    1
    11     1     2   ar
    12     2     3   ar
    13     3     4   ar
    14     4     5   ar
    15     5     7    1
    16     7     8    1
    17     8     9    1
    18     9    10    1
    19    10    13    1
    20    13    14    1
    21    14    15   ar
    22    15    16   ar
    23    16    17   ar
    24    17    20    1
    25    20    21    1
    26    21    22    1
    27    21    23    1
    28    21    24    1
    29    17    18   ar
    30    18    19   ar
    31    10    11    1
    32    11    12    1
    33     5     6   ar
    34    31    32   ar
    35    32    33    1
    36    32    27   ar
    37     6     1   ar
    38    12     7    1
    39    19    14   ar
    40    37    38    1
    41    25    26    1
@<TRIPOS>MOLECULE
*****
 38 41 0 0 0
SMALL
GASTEIGER

@<TRIPOS>ATOM
      1 C         140.7305  144.1512  160.2023 C.ar    1  UNL1        0.2245
      2 N         141.4731  145.2821  159.5545 N.ar    1  UNL1       -0.1912
      3 C         141.1912  145.6438  158.1263 C.ar    1  UNL1        0.2037
      4 N         140.1667  144.8748  157.3460 N.ar    1  UNL1       -0.1912
      5 C         139.4241  143.7439  157.9938 C.ar    1  UNL1        0.2240
      6 N         139.7059  143.3821  159.4220 N.ar    1  UNL1       -0.1806
      7 N         138.3996  142.9748  157.2135 N.pl3   1  UNL1       -0.2779
      8 C         137.9029  141.6550  157.7246 C.3     1  UNL1        0.0973
      9 C         136.8785  140.8859  156.9443 C.3     1  UNL1        0.0651
     10 C         136.3506  141.4367  155.6527 C.3     1  UNL1        0.1693
     11 C         136.8473  142.7566  155.1415 C.3     1  UNL1        0.0651
     12 C         137.8718  143.5256  155.9220 C.3     1  UNL1        0.0973
     13 O         135.3262  140.6676  154.8724 O.3     1  UNL1       -0.4791
     14 C         133.9727  140.4073  155.4642 C.ar    1  UNL1        0.1386
     15 C         133.7228  139.1478  156.2395 C.ar    1  UNL1        0.0400
     16 C         132.3693  138.8874  156.8314 C.ar    1  UNL1        0.0403
     17 C         131.2657  139.8865  156.6479 C.ar    1  UNL1        0.1470
     18 C         131.5155  141.1461  155.8725 C.ar    1  UNL1        0.0403
     19 C         132.8690  141.4065  155.2807 C.ar    1  UNL1        0.0400
     20 O         129.9122  139.6261  157.2397 O.3     1  UNL1       -0.4045
     21 C         129.6129  138.2995  157.8725 C.3     1  UNL1        0.5753
     22 F         129.3136  136.9728  158.5052 F       1  UNL1       -0.1328
     23 F         129.5812  138.9509  159.2232 F       1  UNL1       -0.1328
     24 F         129.6447  137.6481  156.5217 F       1  UNL1       -0.1328
     25 N         141.0123  143.7895  161.6305 N.pl3   1  UNL1       -0.2826
     26 H         141.9422  143.7056  161.9427 H       1  UNL1        0.1551
     27 C         138.3836  141.9239  163.9455 C.ar    1  UNL1        0.0474
     28 C         137.6075  143.0873  164.4877 C.ar    1  UNL1        0.0144
     29 C         137.9663  144.4848  164.0776 C.ar    1  UNL1        0.0025
     30 C         139.1012  144.7189  163.1252 C.ar    1  UNL1        0.0144
     31 C         139.8773  143.5554  162.5829 C.ar    1  UNL1        0.0476
     32 C         139.5185  142.1579  162.9931 C.ar    1  UNL1        0.0051
     33 C         140.2946  140.9945  162.4508 C.3     1  UNL1        0.0336
     34 C         138.1645  138.5783  166.0689 C.3     1  UNL1        0.0949
     35 C         138.5234  139.9758  165.6587 C.2     1  UNL1        0.2266
     36 O         139.3810  140.8227  166.5518 O.2     1  UNL1       -0.2748
     37 N         138.0247  140.5264  164.3556 N.am    1  UNL1       -0.2841
     38 H         137.4619  139.9705  163.7696 H       1  UNL1        0.1548
@<TRIPOS>BOND
     1    34    35    1
     2    35    36    2
     3    35    37   am
     4    37    27    1
     5    27    28   ar
     6    28    29   ar
     7    29    30   ar
     8    30    31   ar
     9    31    25    1
    10    25     1    1
    11     1     2   ar
    12     2     3   ar
    13     3     4   ar
    14     4     5   ar
    15     5     7    1
    16     7     8    1
    17     8     9    1
    18     9    10    1
    19    10    13    1
    20    13    14    1
    21    14    15   ar
    22    15    16   ar
    23    16    17   ar
    24    17    20    1
    25    20    21    1
    26    21    22    1
    27    21    23    1
    28    21    24    1
    29    17    18   ar
    30    18    19   ar
    31    10    11    1
    32    11    12    1
    33     5     6   ar
    34    31    32   ar
    35    32    33    1
    36    32    27   ar
    37     6     1   ar
    38    12     7    1
    39    19    14   ar
    40    37    38    1
    41    25    26    1
@<TRIPOS>MOLECULE
*****
 38 41 0 0 0
SMALL
GASTEIGER

@<TRIPOS>ATOM
      1 C         140.4205  145.0633  160.1972 C.ar    1  UNL1        0.2245
      2 N         141.8303  145.1147  159.6876 N.ar    1  UNL1       -0.1912
      3 C         142.1822  144.4553  158.3871 C.ar    1  UNL1        0.2037
      4 N         141.1243  143.7446  157.5961 N.ar    1  UNL1       -0.1912
      5 C         139.7144  143.6932  158.1057 C.ar    1  UNL1        0.2240
      6 N         139.3625  144.3525  159.4062 N.ar    1  UNL1       -0.1806
      7 N         138.6565  142.9825  157.3147 N.pl3   1  UNL1       -0.2779
      8 C         138.1499  141.6463  157.7707 C.3     1  UNL1        0.0973
      9 C         137.0920  140.9355  156.9797 C.3     1  UNL1        0.0651
     10 C         136.5407  141.5610  155.7327 C.3     1  UNL1        0.1693
     11 C         137.0474  142.8972  155.2767 C.3     1  UNL1        0.0651
     12 C         138.1053  143.6079  156.0678 C.3     1  UNL1        0.0973
     13 O         135.4828  140.8503  154.9417 O.3     1  UNL1       -0.4791
     14 C         134.1585  140.5366  155.5724 C.ar    1  UNL1        0.1386
     15 C         132.9763  141.4230  155.3147 C.ar    1  UNL1        0.0400
     16 C         131.6520  141.1093  155.9455 C.ar    1  UNL1        0.0403
     17 C         131.5099  139.9092  156.8339 C.ar    1  UNL1        0.1470
     18 C         132.6922  139.0226  157.0917 C.ar    1  UNL1        0.0403
     19 C         134.0165  139.3363  156.4609 C.ar    1  UNL1        0.0400
     20 O         130.1856  139.5955  157.4647 O.3     1  UNL1       -0.4045
     21 C         129.6731  138.1858  157.4711 C.3     1  UNL1        0.5753
     22 F         129.1606  136.7761  157.4776 F       1  UNL1       -0.1328
     23 F         129.6472  138.1884  155.9714 F       1  UNL1       -0.1328
     24 F         129.6990  138.1833  158.9709 F       1  UNL1       -0.1328
     25 N         140.0685  145.7226  161.4978 N.pl3   1  UNL1       -0.2826
     26 H         140.1320  146.7010  161.5866 H       1  UNL1        0.1551
     27 C         140.1751  143.5654  164.8272 C.ar    1  UNL1        0.0474
     28 C         138.7229  143.2283  164.9931 C.ar    1  UNL1        0.0144
     29 C         137.7193  143.7227  163.9940 C.ar    1  UNL1        0.0025
     30 C         138.1678  144.5541  162.8289 C.ar    1  UNL1        0.0144
     31 C         139.6200  144.8911  162.6629 C.ar    1  UNL1        0.0476
     32 C         140.6236  144.3968  163.6621 C.ar    1  UNL1        0.0051
     33 C         142.0758  144.7339  163.4960 C.3     1  UNL1        0.0336
     34 C         142.8821  141.2689  166.6015 C.3     1  UNL1        0.0949
     35 C         141.8784  141.7632  165.6024 C.2     1  UNL1        0.2266
     36 O         141.5745  140.9498  164.3793 O.2     1  UNL1       -0.2748
     37 N         141.1787  143.0710  165.8263 N.am    1  UNL1       -0.2841
     38 H         141.3782  143.6049  166.6291 H       1  UNL1        0.1548
@<TRIPOS>BOND
     1    34    35    1
     2    35    36    2
     3    35    37   am
     4    37    27    1
     5    27    28   ar
     6    28    29   ar
     7    29    30   ar
     8    30    31   ar
     9    31    25    1
    10    25     1    1
    11     1     2   ar
    12     2     3   ar
    13     3     4   ar
    14     4     5   ar
    15     5     7    1
    16     7     8    1
    17     8     9    1
    18     9    10    1
    19    10    13    1
    20    13    14    1
    21    14    15   ar
    22    15    16   ar
    23    16    17   ar
    24    17    20    1
    25    20    21    1
    26    21    22    1
    27    21    23    1
    28    21    24    1
    29    17    18   ar
    30    18    19   ar
    31    10    11    1
    32    11    12    1
    33     5     6   ar
    34    31    32   ar
    35    32    33    1
    36    32    27   ar
    37     6     1   ar
    38    12     7    1
    39    19    14   ar
    40    37    38    1
    41    25    26    1
@<TRIPOS>MOLECULE
*****
 38 41 0 0 0
SMALL
GASTEIGER

@<TRIPOS>ATOM
      1 C         139.6737  142.8914  159.7048 C.ar    1  UNL1        0.2245
      2 N         140.8900  143.7679  159.7527 N.ar    1  UNL1       -0.1912
      3 C         142.1391  143.3576  159.0307 C.ar    1  UNL1        0.2037
      4 N         142.1720  142.0706  158.2609 N.ar    1  UNL1       -0.1912
      5 C         140.9557  141.1940  158.2130 C.ar    1  UNL1        0.2240
      6 N         139.7065  141.6044  158.9350 N.ar    1  UNL1       -0.1806
      7 N         140.9886  139.9071  157.4432 N.pl3   1  UNL1       -0.2779
      8 C         139.9724  138.8397  157.7227 C.3     1  UNL1        0.0973
      9 C         140.0053  137.5528  156.9529 C.3     1  UNL1        0.0651
     10 C         141.0544  137.3332  155.9034 C.3     1  UNL1        0.1693
     11 C         142.0705  138.4005  155.6239 C.3     1  UNL1        0.0651
     12 C         142.0376  139.6875  156.3938 C.3     1  UNL1        0.0973
     13 O         141.0872  136.0462  155.1336 O.3     1  UNL1       -0.4791
     14 C         141.7778  134.8454  155.7091 C.ar    1  UNL1        0.1386
     15 C         141.4005  133.4696  155.2459 C.ar    1  UNL1        0.0400
     16 C         142.0910  132.2688  155.8215 C.ar    1  UNL1        0.0403
     17 C         143.1589  132.4438  156.8602 C.ar    1  UNL1        0.1470
     18 C         143.5363  133.8197  157.3234 C.ar    1  UNL1        0.0403
     19 C         142.8457  135.0205  156.7479 C.ar    1  UNL1        0.0400
     20 O         143.8494  131.2430  157.4357 O.3     1  UNL1       -0.4045
     21 C         144.5683  130.2862  156.5315 C.3     1  UNL1        0.5753
     22 F         145.2872  129.3293  155.6272 F       1  UNL1       -0.1328
     23 F         145.3819  131.4190  155.9796 F       1  UNL1       -0.1328
     24 F         143.7547  129.1534  157.0834 F       1  UNL1       -0.1328
     25 N         138.4246  143.3018  160.4268 N.pl3   1  UNL1       -0.2826
     26 H         137.6267  143.5702  159.9165 H       1  UNL1        0.1551
     27 C         137.9759  142.0583  164.1689 C.ar    1  UNL1        0.0474
     28 C         138.3244  143.3056  164.9257 C.ar    1  UNL1        0.0144
     29 C         138.7063  144.5516  164.1830 C.ar    1  UNL1        0.0025
     30 C         138.7397  144.5503  162.6834 C.ar    1  UNL1        0.0144
     31 C         138.3912  143.3031  161.9265 C.ar    1  UNL1        0.0476
     32 C         138.0093  142.0571  162.6693 C.ar    1  UNL1        0.0051
     33 C         137.6609  140.8098  161.9123 C.3     1  UNL1        0.0336
     34 C         138.2746  138.6152  166.1197 C.3     1  UNL1        0.0949
     35 C         138.6565  139.8612  165.3770 C.2     1  UNL1        0.2266
     36 O         140.1009  140.1561  165.0996 O.2     1  UNL1       -0.2748
     37 N         137.5941  140.8123  164.9116 N.am    1  UNL1       -0.2841
     38 H         136.6461  140.6188  165.0937 H       1  UNL1        0.1548
@<TRIPOS>BOND
     1    34    35    1
     2    35    36    2
     3    35    37   am
     4    37    27    1
     5    27    28   ar
     6    28    29   ar
     7    29    30   ar
     8    30    31   ar
     9    31    25    1
    10    25     1    1
    11     1     2   ar
    12     2     3   ar
    13     3     4   ar
    14     4     5   ar
    15     5     7    1
    16     7     8    1
    17     8     9    1
    18     9    10    1
    19    10    13    1
    20    13    14    1
    21    14    15   ar
    22    15    16   ar
    23    16    17   ar
    24    17    20    1
    25    20    21    1
    26    21    22    1
    27    21    23    1
    28    21    24    1
    29    17    18   ar
    30    18    19   ar
    31    10    11    1
    32    11    12    1
    33     5     6   ar
    34    31    32   ar
    35    32    33    1
    36    32    27   ar
    37     6     1   ar
    38    12     7    1
    39    19    14   ar
    40    37    38    1
    41    25    26    1
@<TRIPOS>MOLECULE
*****
 38 41 0 0 0
SMALL
GASTEIGER

@<TRIPOS>ATOM
      1 C         138.1341  140.8259  160.5918 C.ar    1  UNL1        0.2245
      2 N         138.2037  142.3203  160.4841 N.ar    1  UNL1       -0.1912
      3 C         138.9175  142.9565  159.3283 C.ar    1  UNL1        0.2037
      4 N         139.5617  142.0982  158.2803 N.ar    1  UNL1       -0.1912
      5 C         139.4920  140.6037  158.3880 C.ar    1  UNL1        0.2240
      6 N         138.7782  139.9675  159.5438 N.ar    1  UNL1       -0.1806
      7 N         140.1362  139.7454  157.3400 N.pl3   1  UNL1       -0.2779
      8 C         141.0743  140.3571  156.3422 C.3     1  UNL1        0.0973
      9 C         141.7185  139.4988  155.2942 C.3     1  UNL1        0.0651
     10 C         141.4245  138.0287  155.2439 C.3     1  UNL1        0.1693
     11 C         140.4863  137.4170  156.2417 C.3     1  UNL1        0.0651
     12 C         139.8421  138.2754  157.2898 C.3     1  UNL1        0.0973
     13 O         142.0686  137.1705  154.1959 O.3     1  UNL1       -0.4791
     14 C         142.4702  135.7625  154.5223 C.ar    1  UNL1        0.1386
     15 C         141.9136  134.6200  153.7256 C.ar    1  UNL1        0.0400
     16 C         142.3151  133.2121  154.0520 C.ar    1  UNL1        0.0403
     17 C         143.2733  132.9467  155.1751 C.ar    1  UNL1        0.1470
     18 C         143.8299  134.0892  155.9719 C.ar    1  UNL1        0.0403
     19 C         143.4284  135.4972  155.6455 C.ar    1  UNL1        0.0400
     20 O         143.6748  131.5388  155.5015 O.3     1  UNL1       -0.4045
     21 C         144.2359  131.2133  156.8539 C.3     1  UNL1        0.5753
     22 F         144.7969  130.8877  158.2065 F       1  UNL1       -0.1328
     23 F         145.6260  131.3978  156.3217 F       1  UNL1       -0.1328
     24 F         142.8457  131.0287  157.3862 F       1  UNL1       -0.1328
     25 N         137.4202  140.1897  161.7476 N.pl3   1  UNL1       -0.2826
     26 H         136.4416  140.2650  161.8234 H       1  UNL1        0.1551
     27 C         139.3304  139.3535  165.1243 C.ar    1  UNL1        0.0474
     28 C         139.7523  137.9371  164.8680 C.ar    1  UNL1        0.0144
     29 C         139.3968  137.2715  163.5716 C.ar    1  UNL1        0.0025
     30 C         138.6195  138.0223  162.5315 C.ar    1  UNL1        0.0144
     31 C         138.1976  139.4387  162.7877 C.ar    1  UNL1        0.0476
     32 C         138.5531  140.1043  164.0841 C.ar    1  UNL1        0.0051
     33 C         138.1312  141.5208  164.3403 C.3     1  UNL1        0.0336
     34 C         139.3035  140.3242  168.9722 C.3     1  UNL1        0.0949
     35 C         138.9480  139.6586  167.6759 C.2     1  UNL1        0.2266
     36 O         137.8547  138.6325  167.6347 O.2     1  UNL1       -0.2748
     37 N         139.6859  140.0191  166.4207 N.am    1  UNL1       -0.2841
     38 H         140.4035  140.6926  166.4477 H       1  UNL1        0.1548
@<TRIPOS>BOND
     1    34    35    1
     2    35    36    2
     3    35    37   am
     4    37    27    1
     5    27    28   ar
     6    28    29   ar
     7    29    30   ar
     8    30    31   ar
     9    31    25    1
    10    25     1    1
    11     1     2   ar
    12     2     3   ar
    13     3     4   ar
    14     4     5   ar
    15     5     7    1
    16     7     8    1
    17     8     9    1
    18     9    10    1
    19    10    13    1
    20    13    14    1
    21    14    15   ar
    22    15    16   ar
    23    16    17   ar
    24    17    20    1
    25    20    21    1
    26    21    22    1
    27    21    23    1
    28    21    24    1
    29    17    18   ar
    30    18    19   ar
    31    10    11    1
    32    11    12    1
    33     5     6   ar
    34    31    32   ar
    35    32    33    1
    36    32    27   ar
    37     6     1   ar
    38    12     7    1
    39    19    14   ar
    40    37    38    1
    41    25    26    1
@<TRIPOS>MOLECULE
*****
 38 41 0 0 0
SMALL
GASTEIGER

@<TRIPOS>ATOM
      1 C         136.1839  140.8907  155.8425 C.ar    1  UNL1        0.2245
      2 N         136.4354  141.3424  154.4344 N.ar    1  UNL1       -0.1912
      3 C         137.4695  142.3930  154.1572 C.ar    1  UNL1        0.2037
      4 N         138.2522  142.9919  155.2880 N.ar    1  UNL1       -0.1912
      5 C         138.0007  142.5402  156.6962 C.ar    1  UNL1        0.2240
      6 N         136.9666  141.4896  156.9734 N.ar    1  UNL1       -0.1806
      7 N         138.7833  143.1391  157.8270 N.pl3   1  UNL1       -0.2779
      8 C         139.6439  144.3442  157.5880 C.3     1  UNL1        0.0973
      9 C         140.4265  144.9431  158.7188 C.3     1  UNL1        0.0651
     10 C         140.3486  144.3369  160.0887 C.3     1  UNL1        0.1693
     11 C         139.4880  143.1318  160.3277 C.3     1  UNL1        0.0651
     12 C         138.7054  142.5329  159.1967 C.3     1  UNL1        0.0973
     13 O         141.1312  144.9358  161.2195 O.3     1  UNL1       -0.4791
     14 C         140.8420  144.5241  162.6326 C.ar    1  UNL1        0.1386
     15 C         141.7579  143.5681  163.3376 C.ar    1  UNL1        0.0400
     16 C         141.4687  143.1563  164.7507 C.ar    1  UNL1        0.0403
     17 C         140.2635  143.7006  165.4588 C.ar    1  UNL1        0.1470
     18 C         139.3475  144.6566  164.7537 C.ar    1  UNL1        0.0403
     19 C         139.6368  145.0684  163.3406 C.ar    1  UNL1        0.0400
     20 O         139.9743  143.2888  166.8718 O.3     1  UNL1       -0.4045
     21 C         140.4831  141.9763  167.3897 C.3     1  UNL1        0.5753
     22 F         140.9920  140.6636  167.9075 F       1  UNL1       -0.1328
     23 F         139.4150  141.2583  166.6193 F       1  UNL1       -0.1328
     24 F         141.5513  142.6942  168.1600 F       1  UNL1       -0.1328
     25 N         135.1498  139.8401  156.1197 N.pl3   1  UNL1       -0.2826
     26 H         135.4266  138.9132  156.3028 H       1  UNL1        0.1551
     27 C         131.3198  139.9814  157.1498 C.ar    1  UNL1        0.0474
     28 C         130.7826  140.9251  156.1150 C.ar    1  UNL1        0.0144
     29 C         131.7011  141.5071  155.0818 C.ar    1  UNL1        0.0025
     30 C         133.1569  141.1455  155.0834 C.ar    1  UNL1        0.0144
     31 C         133.6940  140.2018  156.1181 C.ar    1  UNL1        0.0476
     32 C         132.7755  139.6197  157.1514 C.ar    1  UNL1        0.0051
     33 C         133.3128  138.6760  158.1862 C.3     1  UNL1        0.0336
     34 C         128.7300  137.5533  158.9238 C.3     1  UNL1        0.0949
     35 C         129.6485  138.1353  157.8906 C.2     1  UNL1        0.2266
     36 O         129.8142  137.4533  156.5649 O.2     1  UNL1       -0.2748
     37 N         130.4013  139.3993  158.1830 N.am    1  UNL1       -0.2841
     38 H         130.2925  139.8470  159.0531 H       1  UNL1        0.1548
@<TRIPOS>BOND
     1    34    35    1
     2    35    36    2
     3    35    37   am
     4    37    27    1
     5    27    28   ar
     6    28    29   ar
     7    29    30   ar
     8    30    31   ar
     9    31    25    1
    10    25     1    1
    11     1     2   ar
    12     2     3   ar
    13     3     4   ar
    14     4     5   ar
    15     5     7    1
    16     7     8    1
    17     8     9    1
    18     9    10    1
    19    10    13    1
    20    13    14    1
    21    14    15   ar
    22    15    16   ar
    23    16    17   ar
    24    17    20    1
    25    20    21    1
    26    21    22    1
    27    21    23    1
    28    21    24    1
    29    17    18   ar
    30    18    19   ar
    31    10    11    1
    32    11    12    1
    33     5     6   ar
    34    31    32   ar
    35    32    33    1
    36    32    27   ar
    37     6     1   ar
    38    12     7    1
    39    19    14   ar
    40    37    38    1
    41    25    26    1
