@<TRIPOS>MOLECULE
*****
 28 30 0 0 0
SMALL
GASTEIGER

@<TRIPOS>ATOM
      1 C         143.0834  140.3337  165.6095 C.ar    1  UNL1        0.0617
      2 C         143.9263  140.2847  164.3696 C.ar    1  UNL1        0.0326
      3 C         144.5688  141.6286  164.1926 C.ar    1  UNL1        0.0977
      4 N         144.1232  142.5080  165.3231 N.ar    1  UNL1       -0.1683
      5 N         143.2052  141.7077  166.1988 N.ar    1  UNL1       -0.2340
      6 C         142.5279  142.1958  167.4450 C.ar    1  UNL1        0.0824
      7 C         141.0730  142.5594  167.4146 C.ar    1  UNL1        0.0191
      8 C         140.3957  143.0474  168.6607 C.ar    1  UNL1        0.0015
      9 C         141.1733  143.1719  169.9374 C.ar    1  UNL1        0.0001
     10 C         142.6283  142.8084  169.9678 C.ar    1  UNL1        0.0015
     11 C         143.3055  142.3203  168.7216 C.ar    1  UNL1        0.0191
     12 C         142.2630  139.2065  166.1629 C.3     1  UNL1        0.0459
     13 C         141.0788  137.4463  164.6632 C.3     1  UNL1        0.0004
     14 C         141.0428  138.7360  165.4283 C.3     1  UNL1        0.0059
     15 C         139.7865  139.5551  165.4588 C.3     1  UNL1        0.0004
     16 C         145.4946  142.0235  163.0804 C.3     1  UNL1        0.1387
     17 N         144.9956  142.8879  161.9606 N.3     1  UNL1       -0.1733
     18 H         144.9946  142.3096  161.1203 H       1  UNL1        0.1492
     19 S         143.6399  143.5233  162.0505 S.O2    1  UNL1        0.0606
     20 O         143.0219  142.2875  161.4668 O.2     1  UNL1       -0.1530
     21 O         144.2579  144.7591  162.6342 O.2     1  UNL1       -0.1530
     22 C         142.2841  144.1589  162.1405 C.ar    1  UNL1        0.1242
     23 C         141.6008  144.6473  160.8978 C.ar    1  UNL1        0.0200
     24 C         140.2450  145.2828  160.9878 C.ar    1  UNL1        0.0037
     25 C         139.5727  145.4299  162.3205 C.ar    1  UNL1        0.0297
     26 C         140.2560  144.9414  163.5633 C.ar    1  UNL1        0.1415
     27 F         139.5836  145.0885  164.8961 F       1  UNL1       -0.2041
     28 C         141.6117  144.3059  163.4733 C.ar    1  UNL1        0.0495
@<TRIPOS>BOND
     1    13    14    1
     2    14    15    1
     3    14    12    1
     4    12     1    1
     5     1     2   ar
     6     2     3   ar
     7     3    16    1
     8    16    17    1
     9    17    19    1
    10    19    20    2
    11    19    21    2
    12    19    22    1
    13    22    23   ar
    14    23    24   ar
    15    24    25   ar
    16    25    26   ar
    17    26    27    1
    18    26    28   ar
    19     3     4   ar
    20     4     5   ar
    21     5     6    1
    22     6     7   ar
    23     7     8   ar
    24     8     9   ar
    25     9    10   ar
    26    10    11   ar
    27     5     1   ar
    28    11     6   ar
    29    28    22   ar
    30    17    18    1
@<TRIPOS>MOLECULE
*****
 28 30 0 0 0
SMALL
GASTEIGER

@<TRIPOS>ATOM
      1 C         138.7373  139.8993  164.8093 C.ar    1  UNL1        0.0617
      2 C         137.9499  140.7411  163.8492 C.ar    1  UNL1        0.0326
      3 C         138.1282  142.1785  164.2393 C.ar    1  UNL1        0.0977
      4 N         139.0256  142.2252  165.4403 N.ar    1  UNL1       -0.1683
      5 N         139.4021  140.8166  165.7926 N.ar    1  UNL1       -0.2340
      6 C         140.2878  140.3986  166.9286 C.ar    1  UNL1        0.0824
      7 C         141.7147  140.0176  166.6663 C.ar    1  UNL1        0.0191
      8 C         142.6005  139.5996  167.8023 C.ar    1  UNL1        0.0015
      9 C         142.0594  139.5626  169.2008 C.ar    1  UNL1        0.0001
     10 C         140.6324  139.9436  169.4633 C.ar    1  UNL1        0.0015
     11 C         139.7467  140.3616  168.3271 C.ar    1  UNL1        0.0191
     12 C         138.8416  138.4031  164.7895 C.3     1  UNL1        0.0459
     13 C         139.6901  137.7352  162.4265 C.3     1  UNL1        0.0004
     14 C         139.8615  137.7339  163.9166 C.3     1  UNL1        0.0059
     15 C         141.0529  137.0633  164.5339 C.3     1  UNL1        0.0004
     16 C         137.5163  143.3616  163.5493 C.3     1  UNL1        0.1387
     17 N         138.2793  144.0822  162.4776 N.3     1  UNL1       -0.1733
     18 H         137.9608  145.0511  162.4902 H       1  UNL1        0.1492
     19 S         139.7783  144.1186  162.5196 S.O2    1  UNL1        0.0606
     20 O         139.8338  143.1178  161.4037 O.2     1  UNL1       -0.1530
     21 O         139.7227  145.1193  163.6356 O.2     1  UNL1       -0.1530
     22 C         141.2773  144.1550  162.5616 C.ar    1  UNL1        0.1242
     23 C         142.0747  143.4114  161.5316 C.ar    1  UNL1        0.0200
     24 C         143.5737  143.4478  161.5736 C.ar    1  UNL1        0.0037
     25 C         144.2752  144.2278  162.6458 C.ar    1  UNL1        0.0297
     26 C         143.4777  144.9714  163.6758 C.ar    1  UNL1        0.1415
     27 F         144.1792  145.7514  164.7480 F       1  UNL1       -0.2041
     28 C         141.9788  144.9350  163.6338 C.ar    1  UNL1        0.0495
@<TRIPOS>BOND
     1    13    14    1
     2    14    15    1
     3    14    12    1
     4    12     1    1
     5     1     2   ar
     6     2     3   ar
     7     3    16    1
     8    16    17    1
     9    17    19    1
    10    19    20    2
    11    19    21    2
    12    19    22    1
    13    22    23   ar
    14    23    24   ar
    15    24    25   ar
    16    25    26   ar
    17    26    27    1
    18    26    28   ar
    19     3     4   ar
    20     4     5   ar
    21     5     6    1
    22     6     7   ar
    23     7     8   ar
    24     8     9   ar
    25     9    10   ar
    26    10    11   ar
    27     5     1   ar
    28    11     6   ar
    29    28    22   ar
    30    17    18    1
@<TRIPOS>MOLECULE
*****
 28 30 0 0 0
SMALL
GASTEIGER

@<TRIPOS>ATOM
      1 C         139.3888  141.4787  165.6518 C.ar    1  UNL1        0.0617
      2 C         138.5331  141.9194  164.5012 C.ar    1  UNL1        0.0326
      3 C         138.5855  143.4169  164.4317 C.ar    1  UNL1        0.0977
      4 N         139.4735  143.9017  165.5391 N.ar    1  UNL1       -0.1683
      5 N         139.9699  142.7039  166.2932 N.ar    1  UNL1       -0.2340
      6 C         140.8866  142.7271  167.4802 C.ar    1  UNL1        0.0824
      7 C         140.4024  143.2718  168.7913 C.ar    1  UNL1        0.0191
      8 C         141.3190  143.2950  169.9783 C.ar    1  UNL1        0.0015
      9 C         142.7199  142.7734  169.8544 C.ar    1  UNL1        0.0001
     10 C         143.2042  142.2286  168.5434 C.ar    1  UNL1        0.0015
     11 C         142.2875  142.2055  167.3564 C.ar    1  UNL1        0.0191
     12 C         139.6223  140.0617  166.0848 C.3     1  UNL1        0.0459
     13 C         139.1729  139.8658  168.6362 C.3     1  UNL1        0.0004
     14 C         138.8352  139.4865  167.2248 C.3     1  UNL1        0.0059
     15 C         137.7103  138.5319  166.9534 C.3     1  UNL1        0.0004
     16 C         137.8746  144.2784  163.4303 C.3     1  UNL1        0.1387
     17 N         138.6125  144.8031  162.2344 N.3     1  UNL1       -0.1733
     18 H         138.6398  145.8185  162.3275 H       1  UNL1        0.1492
     19 S         140.0183  144.3551  161.9645 S.O2    1  UNL1        0.0606
     20 O         139.4953  143.1516  161.2380 O.2     1  UNL1       -0.1530
     21 O         140.5414  145.5586  162.6911 O.2     1  UNL1       -0.1530
     22 C         141.4242  143.9071  161.6947 C.ar    1  UNL1        0.1242
     23 C         141.8421  143.5476  160.2996 C.ar    1  UNL1        0.0200
     24 C         143.2480  143.0997  160.0298 C.ar    1  UNL1        0.0037
     25 C         144.2359  143.0111  161.1550 C.ar    1  UNL1        0.0297
     26 C         143.8181  143.3706  162.5500 C.ar    1  UNL1        0.1415
     27 F         144.8060  143.2821  163.6752 F       1  UNL1       -0.2041
     28 C         142.4122  143.8186  162.8198 C.ar    1  UNL1        0.0495
@<TRIPOS>BOND
     1    13    14    1
     2    14    15    1
     3    14    12    1
     4    12     1    1
     5     1     2   ar
     6     2     3   ar
     7     3    16    1
     8    16    17    1
     9    17    19    1
    10    19    20    2
    11    19    21    2
    12    19    22    1
    13    22    23   ar
    14    23    24   ar
    15    24    25   ar
    16    25    26   ar
    17    26    27    1
    18    26    28   ar
    19     3     4   ar
    20     4     5   ar
    21     5     6    1
    22     6     7   ar
    23     7     8   ar
    24     8     9   ar
    25     9    10   ar
    26    10    11   ar
    27     5     1   ar
    28    11     6   ar
    29    28    22   ar
    30    17    18    1
@<TRIPOS>MOLECULE
*****
 28 30 0 0 0
SMALL
GASTEIGER

@<TRIPOS>ATOM
      1 C         141.4257  143.0366  165.2654 C.ar    1  UNL1        0.0617
      2 C         141.8190  143.8126  164.0434 C.ar    1  UNL1        0.0326
      3 C         143.3168  143.8195  163.9609 C.ar    1  UNL1        0.0977
      4 N         143.8491  143.0479  165.1318 N.ar    1  UNL1       -0.1683
      5 N         142.6805  142.5640  165.9381 N.ar    1  UNL1       -0.2340
      6 C         142.7536  141.7504  167.1961 C.ar    1  UNL1        0.0824
      7 C         142.4200  140.2883  167.1642 C.ar    1  UNL1        0.0191
      8 C         142.4932  139.4747  168.4222 C.ar    1  UNL1        0.0015
      9 C         142.8999  140.1232  169.7122 C.ar    1  UNL1        0.0001
     10 C         143.2336  141.5853  169.7441 C.ar    1  UNL1        0.0015
     11 C         143.1604  142.3989  168.4860 C.ar    1  UNL1        0.0191
     12 C         140.0240  142.7786  165.7327 C.3     1  UNL1        0.0459
     13 C         138.0110  142.8343  164.0912 C.3     1  UNL1        0.0004
     14 C         138.8773  143.5167  165.1079 C.3     1  UNL1        0.0059
     15 C         138.5970  144.9372  165.4998 C.3     1  UNL1        0.0004
     16 C         144.1379  144.4819  162.8945 C.3     1  UNL1        0.1387
     17 N         144.8869  143.6475  161.8981 N.3     1  UNL1       -0.1733
     18 H         145.8674  143.6631  162.1788 H       1  UNL1        0.1492
     19 S         144.5169  142.2080  161.6964 S.O2    1  UNL1        0.0606
     20 O         145.6971  141.7890  162.5219 O.2     1  UNL1       -0.1530
     21 O         143.3368  142.6269  160.8708 O.2     1  UNL1       -0.1530
     22 C         144.1470  140.7683  161.4946 C.ar    1  UNL1        0.1242
     23 C         144.1342  139.8266  162.6620 C.ar    1  UNL1        0.0200
     24 C         143.7643  138.3870  162.4602 C.ar    1  UNL1        0.0037
     25 C         143.4070  137.8892  161.0911 C.ar    1  UNL1        0.0297
     26 C         143.4197  138.8310  159.9237 C.ar    1  UNL1        0.1415
     27 F         143.0625  138.3332  158.5545 F       1  UNL1       -0.2041
     28 C         143.7897  140.2706  160.1255 C.ar    1  UNL1        0.0495
@<TRIPOS>BOND
     1    13    14    1
     2    14    15    1
     3    14    12    1
     4    12     1    1
     5     1     2   ar
     6     2     3   ar
     7     3    16    1
     8    16    17    1
     9    17    19    1
    10    19    20    2
    11    19    21    2
    12    19    22    1
    13    22    23   ar
    14    23    24   ar
    15    24    25   ar
    16    25    26   ar
    17    26    27    1
    18    26    28   ar
    19     3     4   ar
    20     4     5   ar
    21     5     6    1
    22     6     7   ar
    23     7     8   ar
    24     8     9   ar
    25     9    10   ar
    26    10    11   ar
    27     5     1   ar
    28    11     6   ar
    29    28    22   ar
    30    17    18    1
@<TRIPOS>MOLECULE
*****
 28 30 0 0 0
SMALL
GASTEIGER

@<TRIPOS>ATOM
      1 C         140.9117  139.2358  165.3663 C.ar    1  UNL1        0.0617
      2 C         140.4305  138.7196  164.0426 C.ar    1  UNL1        0.0326
      3 C         138.9861  139.0967  163.8954 C.ar    1  UNL1        0.0977
      4 N         138.5747  139.8459  165.1280 N.ar    1  UNL1       -0.1683
      5 N         139.7647  139.9319  166.0371 N.ar    1  UNL1       -0.2340
      6 C         139.8014  140.5971  167.3809 C.ar    1  UNL1        0.0824
      7 C         139.2061  139.9104  168.5743 C.ar    1  UNL1        0.0191
      8 C         139.2428  140.5756  169.9182 C.ar    1  UNL1        0.0015
      9 C         139.8747  141.9276  170.0688 C.ar    1  UNL1        0.0001
     10 C         140.4700  142.6145  168.8754 C.ar    1  UNL1        0.0015
     11 C         140.4333  141.9491  167.5316 C.ar    1  UNL1        0.0191
     12 C         142.2967  139.0828  165.9216 C.3     1  UNL1        0.0459
     13 C         143.3975  141.3988  165.5042 C.3     1  UNL1        0.0004
     14 C         143.4220  139.9052  165.3673 C.3     1  UNL1        0.0059
     15 C         144.5718  139.2342  164.6762 C.3     1  UNL1        0.0004
     16 C         138.1074  138.7802  162.7216 C.3     1  UNL1        0.1387
     17 N         137.6452  139.8802  161.8125 N.3     1  UNL1       -0.1733
     18 H         136.6292  139.9213  161.8931 H       1  UNL1        0.1492
     19 S         138.1520  141.2782  162.0089 S.O2    1  UNL1        0.0606
     20 O         139.3773  140.9462  161.2099 O.2     1  UNL1       -0.1530
     21 O         136.9267  141.6102  162.8079 O.2     1  UNL1       -0.1530
     22 C         138.6588  142.6763  162.2053 C.ar    1  UNL1        0.1242
     23 C         139.2976  143.4098  161.0635 C.ar    1  UNL1        0.0200
     24 C         139.8043  144.8079  161.2599 C.ar    1  UNL1        0.0037
     25 C         139.6724  145.4723  162.5982 C.ar    1  UNL1        0.0297
     26 C         139.0337  144.7388  163.7401 C.ar    1  UNL1        0.1415
     27 F         138.9018  145.4033  165.0784 F       1  UNL1       -0.2041
     28 C         138.5269  143.3408  163.5436 C.ar    1  UNL1        0.0495
@<TRIPOS>BOND
     1    13    14    1
     2    14    15    1
     3    14    12    1
     4    12     1    1
     5     1     2   ar
     6     2     3   ar
     7     3    16    1
     8    16    17    1
     9    17    19    1
    10    19    20    2
    11    19    21    2
    12    19    22    1
    13    22    23   ar
    14    23    24   ar
    15    24    25   ar
    16    25    26   ar
    17    26    27    1
    18    26    28   ar
    19     3     4   ar
    20     4     5   ar
    21     5     6    1
    22     6     7   ar
    23     7     8   ar
    24     8     9   ar
    25     9    10   ar
    26    10    11   ar
    27     5     1   ar
    28    11     6   ar
    29    28    22   ar
    30    17    18    1
@<TRIPOS>MOLECULE
*****
 28 30 0 0 0
SMALL
GASTEIGER

@<TRIPOS>ATOM
      1 C         143.0146  139.1137  164.9179 C.ar    1  UNL1        0.0617
      2 C         143.9733  139.5945  163.8691 C.ar    1  UNL1        0.0326
      3 C         144.4476  140.9610  164.2663 C.ar    1  UNL1        0.0977
      4 N         143.7821  141.3248  165.5604 N.ar    1  UNL1       -0.1683
      5 N         142.8964  140.1831  165.9631 N.ar    1  UNL1       -0.2340
      6 C         142.0426  140.1216  167.1948 C.ar    1  UNL1        0.0824
      7 C         140.6211  140.5981  167.1466 C.ar    1  UNL1        0.0191
      8 C         139.7672  140.5366  168.3782 C.ar    1  UNL1        0.0015
      9 C         140.3348  139.9986  169.6582 C.ar    1  UNL1        0.0001
     10 C         141.7563  139.5221  169.7065 C.ar    1  UNL1        0.0015
     11 C         142.6102  139.5837  168.4748 C.ar    1  UNL1        0.0191
     12 C         142.2995  137.7951  164.9208 C.3     1  UNL1        0.0459
     13 C         140.9886  137.4744  162.7008 C.3     1  UNL1        0.0004
     14 C         140.9976  137.6464  164.1909 C.3     1  UNL1        0.0059
     15 C         139.7047  137.6695  164.9511 C.3     1  UNL1        0.0004
     16 C         145.4173  141.8140  163.5032 C.3     1  UNL1        0.1387
     17 N         144.9184  142.9671  162.6839 N.3     1  UNL1       -0.1733
     18 H         144.9706  142.6785  161.7069 H       1  UNL1        0.1492
     19 S         143.5339  143.5004  162.9044 S.O2    1  UNL1        0.0606
     20 O         144.0471  144.3761  164.0088 O.2     1  UNL1       -0.1530
     21 O         143.0206  142.6247  161.8000 O.2     1  UNL1       -0.1530
     22 C         142.1493  144.0336  163.1250 C.ar    1  UNL1        0.1242
     23 C         141.3558  143.5898  164.3180 C.ar    1  UNL1        0.0200
     24 C         139.9713  144.1231  164.5385 C.ar    1  UNL1        0.0037
     25 C         139.3802  145.1002  163.5659 C.ar    1  UNL1        0.0297
     26 C         140.1736  145.5440  162.3728 C.ar    1  UNL1        0.1415
     27 F         139.5825  146.5210  161.4003 F       1  UNL1       -0.2041
     28 C         141.5581  145.0107  162.1524 C.ar    1  UNL1        0.0495
@<TRIPOS>BOND
     1    13    14    1
     2    14    15    1
     3    14    12    1
     4    12     1    1
     5     1     2   ar
     6     2     3   ar
     7     3    16    1
     8    16    17    1
     9    17    19    1
    10    19    20    2
    11    19    21    2
    12    19    22    1
    13    22    23   ar
    14    23    24   ar
    15    24    25   ar
    16    25    26   ar
    17    26    27    1
    18    26    28   ar
    19     3     4   ar
    20     4     5   ar
    21     5     6    1
    22     6     7   ar
    23     7     8   ar
    24     8     9   ar
    25     9    10   ar
    26    10    11   ar
    27     5     1   ar
    28    11     6   ar
    29    28    22   ar
    30    17    18    1
@<TRIPOS>MOLECULE
*****
 28 30 0 0 0
SMALL
GASTEIGER

@<TRIPOS>ATOM
      1 C         138.8183  141.2389  165.3373 C.ar    1  UNL1        0.0617
      2 C         138.3191  142.4075  164.5401 C.ar    1  UNL1        0.0326
      3 C         139.1649  143.5978  164.8832 C.ar    1  UNL1        0.0977
      4 N         140.1868  143.1651  165.8923 N.ar    1  UNL1       -0.1683
      5 N         139.9726  141.7072  166.1730 N.ar    1  UNL1       -0.2340
      6 C         140.7722  140.8655  167.1227 C.ar    1  UNL1        0.0824
      7 C         140.3107  140.6881  168.5389 C.ar    1  UNL1        0.0191
      8 C         141.1104  139.8464  169.4885 C.ar    1  UNL1        0.0015
      9 C         142.3716  139.1818  169.0220 C.ar    1  UNL1        0.0001
     10 C         142.8333  139.3591  167.6058 C.ar    1  UNL1        0.0015
     11 C         142.0335  140.2009  166.6562 C.ar    1  UNL1        0.0191
     12 C         138.2611  139.8467  165.3045 C.3     1  UNL1        0.0459
     13 C         139.6096  137.6497  164.9815 C.3     1  UNL1        0.0004
     14 C         138.8689  138.8167  164.3991 C.3     1  UNL1        0.0059
     15 C         138.7359  138.9539  162.9113 C.3     1  UNL1        0.0004
     16 C         139.0150  144.9786  164.3165 C.3     1  UNL1        0.1387
     17 N         139.8941  145.4248  163.1859 N.3     1  UNL1       -0.1733
     18 H         140.1702  146.3855  163.3891 H       1  UNL1        0.1492
     19 S         141.1517  144.6703  162.8710 S.O2    1  UNL1        0.0606
     20 O         140.4214  143.8935  161.8159 O.2     1  UNL1       -0.1530
     21 O         141.8820  145.4471  163.9260 O.2     1  UNL1       -0.1530
     22 C         142.4094  143.9158  162.5560 C.ar    1  UNL1        0.1242
     23 C         142.7344  143.5595  161.1357 C.ar    1  UNL1        0.0200
     24 C         143.9920  142.8050  160.8208 C.ar    1  UNL1        0.0037
     25 C         144.9245  142.4069  161.9262 C.ar    1  UNL1        0.0297
     26 C         144.5995  142.7632  163.3465 C.ar    1  UNL1        0.1415
     27 F         145.5320  142.3651  164.4519 F       1  UNL1       -0.2041
     28 C         143.3419  143.5177  163.6614 C.ar    1  UNL1        0.0495
@<TRIPOS>BOND
     1    13    14    1
     2    14    15    1
     3    14    12    1
     4    12     1    1
     5     1     2   ar
     6     2     3   ar
     7     3    16    1
     8    16    17    1
     9    17    19    1
    10    19    20    2
    11    19    21    2
    12    19    22    1
    13    22    23   ar
    14    23    24   ar
    15    24    25   ar
    16    25    26   ar
    17    26    27    1
    18    26    28   ar
    19     3     4   ar
    20     4     5   ar
    21     5     6    1
    22     6     7   ar
    23     7     8   ar
    24     8     9   ar
    25     9    10   ar
    26    10    11   ar
    27     5     1   ar
    28    11     6   ar
    29    28    22   ar
    30    17    18    1
@<TRIPOS>MOLECULE
*****
 28 30 0 0 0
SMALL
GASTEIGER

@<TRIPOS>ATOM
      1 C         141.6957  143.0219  165.4207 C.ar    1  UNL1        0.0617
      2 C         141.3708  143.7176  164.1320 C.ar    1  UNL1        0.0326
      3 C         139.9096  144.0564  164.1437 C.ar    1  UNL1        0.0977
      4 N         139.3314  143.5701  165.4396 N.ar    1  UNL1       -0.1683
      5 N         140.4352  142.9308  166.2288 N.ar    1  UNL1       -0.2340
      6 C         140.3020  142.3095  167.5874 C.ar    1  UNL1        0.0824
      7 C         140.4626  143.1533  168.8172 C.ar    1  UNL1        0.0191
      8 C         140.3294  142.5319  170.1758 C.ar    1  UNL1        0.0015
      9 C         140.0355  141.0667  170.3049 C.ar    1  UNL1        0.0001
     10 C         139.8748  140.2228  169.0752 C.ar    1  UNL1        0.0015
     11 C         140.0081  140.8442  167.7165 C.ar    1  UNL1        0.0191
     12 C         143.0442  142.5077  165.8295 C.3     1  UNL1        0.0459
     13 C         142.8910  139.9269  165.5733 C.3     1  UNL1        0.0004
     14 C         143.5658  141.2267  165.2491 C.3     1  UNL1        0.0059
     15 C         144.7623  141.2455  164.3446 C.3     1  UNL1        0.0004
     16 C         139.1585  144.7582  163.0513 C.3     1  UNL1        0.1387
     17 N         138.2277  143.9851  162.1648 N.3     1  UNL1       -0.1733
     18 H         138.4277  144.2718  161.2066 H       1  UNL1        0.1492
     19 S         138.2488  142.4854  162.1815 S.O2    1  UNL1        0.0606
     20 O         137.0616  142.4789  163.0982 O.2     1  UNL1       -0.1530
     21 O         139.4360  142.4919  161.2647 O.2     1  UNL1       -0.1530
     22 C         138.2700  140.9856  162.1981 C.ar    1  UNL1        0.1242
     23 C         137.9769  140.2175  160.9435 C.ar    1  UNL1        0.0200
     24 C         137.9980  138.7177  160.9601 C.ar    1  UNL1        0.0037
     25 C         138.3123  137.9861  162.2314 C.ar    1  UNL1        0.0297
     26 C         138.6053  138.7543  163.4860 C.ar    1  UNL1        0.1415
     27 F         138.9196  138.0227  164.7572 F       1  UNL1       -0.2041
     28 C         138.5842  140.2540  163.4693 C.ar    1  UNL1        0.0495
@<TRIPOS>BOND
     1    13    14    1
     2    14    15    1
     3    14    12    1
     4    12     1    1
     5     1     2   ar
     6     2     3   ar
     7     3    16    1
     8    16    17    1
     9    17    19    1
    10    19    20    2
    11    19    21    2
    12    19    22    1
    13    22    23   ar
    14    23    24   ar
    15    24    25   ar
    16    25    26   ar
    17    26    27    1
    18    26    28   ar
    19     3     4   ar
    20     4     5   ar
    21     5     6    1
    22     6     7   ar
    23     7     8   ar
    24     8     9   ar
    25     9    10   ar
    26    10    11   ar
    27     5     1   ar
    28    11     6   ar
    29    28    22   ar
    30    17    18    1
@<TRIPOS>MOLECULE
*****
 28 30 0 0 0
SMALL
GASTEIGER

@<TRIPOS>ATOM
      1 C         140.7992  142.8427  166.0334 C.ar    1  UNL1        0.0617
      2 C         139.6014  143.6825  165.7018 C.ar    1  UNL1        0.0326
      3 C         139.5546  143.8555  164.2126 C.ar    1  UNL1        0.0977
      4 N         140.7234  143.1226  163.6237 N.ar    1  UNL1       -0.1683
      5 N         141.4926  142.4967  164.7491 N.ar    1  UNL1       -0.2340
      6 C         142.7368  141.6699  164.6138 C.ar    1  UNL1        0.0824
      7 C         142.6937  140.1977  164.8981 C.ar    1  UNL1        0.0191
      8 C         143.9378  139.3709  164.7628 C.ar    1  UNL1        0.0015
      9 C         145.2253  140.0163  164.3433 C.ar    1  UNL1        0.0001
     10 C         145.2685  141.4885  164.0590 C.ar    1  UNL1        0.0015
     11 C         144.0242  142.3152  164.1942 C.ar    1  UNL1        0.0191
     12 C         141.2283  142.4226  167.4080 C.3     1  UNL1        0.0459
     13 C         139.9873  141.9345  169.6376 C.3     1  UNL1        0.0004
     14 C         140.3400  141.5403  168.2340 C.3     1  UNL1        0.0059
     15 C         139.8043  140.2637  167.6565 C.3     1  UNL1        0.0004
     16 C         138.5203  144.6262  163.4466 C.3     1  UNL1        0.1387
     17 N         137.5635  143.9050  162.5442 N.3     1  UNL1       -0.1733
     18 H         137.4487  144.4849  161.7130 H       1  UNL1        0.1492
     19 S         137.8834  142.5200  162.0651 S.O2    1  UNL1        0.0606
     20 O         137.0692  141.9444  163.1857 O.2     1  UNL1       -0.1530
     21 O         138.6975  143.0957  160.9446 O.2     1  UNL1       -0.1530
     22 C         138.2033  141.1350  161.5860 C.ar    1  UNL1        0.1242
     23 C         138.5483  140.9009  160.1452 C.ar    1  UNL1        0.0200
     24 C         138.8682  139.5159  159.6661 C.ar    1  UNL1        0.0037
     25 C         138.8431  138.3652  160.6279 C.ar    1  UNL1        0.0297
     26 C         138.4982  138.5993  162.0688 C.ar    1  UNL1        0.1415
     27 F         138.4731  137.4485  163.0306 F       1  UNL1       -0.2041
     28 C         138.1783  139.9843  162.5478 C.ar    1  UNL1        0.0495
@<TRIPOS>BOND
     1    13    14    1
     2    14    15    1
     3    14    12    1
     4    12     1    1
     5     1     2   ar
     6     2     3   ar
     7     3    16    1
     8    16    17    1
     9    17    19    1
    10    19    20    2
    11    19    21    2
    12    19    22    1
    13    22    23   ar
    14    23    24   ar
    15    24    25   ar
    16    25    26   ar
    17    26    27    1
    18    26    28   ar
    19     3     4   ar
    20     4     5   ar
    21     5     6    1
    22     6     7   ar
    23     7     8   ar
    24     8     9   ar
    25     9    10   ar
    26    10    11   ar
    27     5     1   ar
    28    11     6   ar
    29    28    22   ar
    30    17    18    1
