@<TRIPOS>MOLECULE
*****
 33 36 0 0 0
SMALL
GASTEIGER

@<TRIPOS>ATOM
      1 C         140.0579  143.0858  160.2360 C.ar    1  UNL1        0.2512
      2 N         139.8153  144.3975  159.5501 N.ar    1  UNL1       -0.1058
      3 N         139.6903  145.4563  160.6053 N.ar    1  UNL1       -0.0923
      4 C         139.8558  144.7988  161.9434 C.ar    1  UNL1        0.3086
      5 O         140.0829  143.3338  161.7151 O.2     1  UNL1       -0.4048
      6 C         140.6132  139.1054  158.2117 C.ar    1  UNL1        0.0503
      7 C         140.9546  139.2624  159.6638 C.ar    1  UNL1        0.0148
      8 C         140.7695  140.5891  160.3386 C.ar    1  UNL1        0.0060
      9 C         140.2430  141.7589  159.5612 C.ar    1  UNL1        0.0553
     10 C         139.9016  141.6020  158.1090 C.ar    1  UNL1        0.0060
     11 C         140.0867  140.2752  157.4343 C.ar    1  UNL1        0.0148
     12 O         143.3275  138.2874  157.2301 O.2     1  UNL1       -0.2748
     13 C         142.1555  137.3696  157.0461 C.2     1  UNL1        0.2256
     14 N         140.7983  137.7786  157.5368 N.am    1  UNL1       -0.2839
     15 H         140.0291  137.1762  157.4160 H       1  UNL1        0.1549
     16 C         142.3406  136.0427  156.3712 C.3     1  UNL1        0.0768
     17 C         141.2939  135.5286  155.4278 C.3     1  UNL1        0.0091
     18 C         141.4790  134.2019  154.7531 C.3     1  UNL1        0.0005
     19 C         142.7108  133.3892  155.0217 C.3     1  UNL1        0.0000
     20 C         143.7576  133.9033  155.9651 C.3     1  UNL1        0.0005
     21 C         143.5724  135.2301  156.6398 C.3     1  UNL1        0.0091
     22 N         139.8032  145.4858  163.2759 N.pl3   1  UNL1       -0.2871
     23 H         140.1274  146.4110  163.3658 H       1  UNL1        0.1512
     24 C         139.2568  144.7630  164.4713 C.3     1  UNL1        0.0912
     25 C         137.8898  144.1481  164.4157 C.3     1  UNL1        0.0227
     26 C         137.7312  142.6609  164.5303 C.3     1  UNL1        0.0191
     27 C         137.3909  141.8473  163.3170 C.3     1  UNL1        0.0721
     28 N         137.8514  140.4233  163.2155 N.3     1  UNL1       -0.2727
     29 C         137.6998  139.6765  161.9235 C.3     1  UNL1        0.0721
     30 C         138.1602  138.2525  161.8218 C.3     1  UNL1        0.0174
     31 C         138.7723  137.5754  163.0121 C.3     1  UNL1        0.0029
     32 C         138.9239  138.3223  164.3041 C.3     1  UNL1        0.0174
     33 C         138.4634  139.7463  164.4057 C.3     1  UNL1        0.0721
@<TRIPOS>BOND
     1    12    13    2
     2    13    14   am
     3    14     6    1
     4     6     7   ar
     5     7     8   ar
     6     8     9   ar
     7     9     1    1
     8     1     2   ar
     9     2     3   ar
    10     3     4   ar
    11     4    22    1
    12    22    24    1
    13    24    25    1
    14    25    26    1
    15    26    27    1
    16    27    28    1
    17    28    29    1
    18    29    30    1
    19    30    31    1
    20    31    32    1
    21    32    33    1
    22     4     5   ar
    23     9    10   ar
    24    10    11   ar
    25    13    16    1
    26    16    17    1
    27    17    18    1
    28    18    19    1
    29    19    20    1
    30    20    21    1
    31    11     6   ar
    32    21    16    1
    33     5     1   ar
    34    33    28    1
    35    14    15    1
    36    22    23    1
@<TRIPOS>MOLECULE
*****
 33 36 0 0 0
SMALL
GASTEIGER

@<TRIPOS>ATOM
      1 C         142.9363  139.7674  167.3095 C.ar    1  UNL1        0.2512
      2 N         143.0057  138.7306  168.3912 N.ar    1  UNL1       -0.1058
      3 N         143.0764  139.4410  169.7104 N.ar    1  UNL1       -0.0923
      4 C         143.0506  140.9170  169.4439 C.ar    1  UNL1        0.3086
      5 O         142.9640  141.1186  167.9601 O.2     1  UNL1       -0.4048
      6 C         142.6882  138.9649  162.8886 C.ar    1  UNL1        0.0503
      7 C         143.3375  140.2217  163.3874 C.ar    1  UNL1        0.0148
      8 C         143.4201  140.4892  164.8610 C.ar    1  UNL1        0.0060
      9 C         142.8536  139.4998  165.8358 C.ar    1  UNL1        0.0553
     10 C         142.2043  138.2430  165.3370 C.ar    1  UNL1        0.0060
     11 C         142.1216  137.9755  163.8634 C.ar    1  UNL1        0.0148
     12 O         140.0259  138.9920  161.5061 O.2     1  UNL1       -0.2748
     13 C         141.2744  138.7109  160.7237 C.2     1  UNL1        0.2256
     14 N         142.6055  138.6973  161.4149 N.am    1  UNL1       -0.2839
     15 H         143.4250  138.5128  160.9013 H       1  UNL1        0.1549
     16 C         141.1917  138.4434  159.2500 C.3     1  UNL1        0.0768
     17 C         142.3879  137.9147  158.5155 C.3     1  UNL1        0.0091
     18 C         142.3051  137.6472  157.0419 C.3     1  UNL1        0.0005
     19 C         141.0262  137.9083  156.3028 C.3     1  UNL1        0.0000
     20 C         139.8300  138.4370  157.0374 C.3     1  UNL1        0.0005
     21 C         139.9128  138.7045  158.5110 C.3     1  UNL1        0.0091
     22 N         143.1024  142.0010  170.4795 N.pl3   1  UNL1       -0.2871
     23 H         143.9703  142.3671  170.7659 H       1  UNL1        0.1512
     24 C         141.8319  142.5270  171.0787 C.3     1  UNL1        0.0912
     25 C         140.6080  141.6608  171.1217 C.3     1  UNL1        0.0227
     26 C         139.6874  141.6040  169.9389 C.3     1  UNL1        0.0191
     27 C         139.4855  140.3104  169.2071 C.3     1  UNL1        0.0721
     28 N         139.3377  140.3081  167.7144 N.3     1  UNL1       -0.2727
     29 C         138.6583  139.1593  167.0298 C.3     1  UNL1        0.0721
     30 C         138.5105  139.1569  165.5371 C.3     1  UNL1        0.0174
     31 C         139.0420  140.3034  164.7289 C.3     1  UNL1        0.0029
     32 C         139.7213  141.4522  165.4136 C.3     1  UNL1        0.0174
     33 C         139.8691  141.4546  166.9063 C.3     1  UNL1        0.0721
@<TRIPOS>BOND
     1    12    13    2
     2    13    14   am
     3    14     6    1
     4     6     7   ar
     5     7     8   ar
     6     8     9   ar
     7     9     1    1
     8     1     2   ar
     9     2     3   ar
    10     3     4   ar
    11     4    22    1
    12    22    24    1
    13    24    25    1
    14    25    26    1
    15    26    27    1
    16    27    28    1
    17    28    29    1
    18    29    30    1
    19    30    31    1
    20    31    32    1
    21    32    33    1
    22     4     5   ar
    23     9    10   ar
    24    10    11   ar
    25    13    16    1
    26    16    17    1
    27    17    18    1
    28    18    19    1
    29    19    20    1
    30    20    21    1
    31    11     6   ar
    32    21    16    1
    33     5     1   ar
    34    33    28    1
    35    14    15    1
    36    22    23    1
@<TRIPOS>MOLECULE
*****
 33 36 0 0 0
SMALL
GASTEIGER

@<TRIPOS>ATOM
      1 C         143.0003  138.4106  159.3458 C.ar    1  UNL1        0.2512
      2 N         143.7551  139.4459  158.5658 N.ar    1  UNL1       -0.1058
      3 N         143.7574  139.0300  157.1246 N.ar    1  UNL1       -0.0923
      4 C         143.0039  137.7376  157.0140 C.ar    1  UNL1        0.3086
      5 O         142.5361  137.3548  158.3868 O.2     1  UNL1       -0.4048
      6 C         142.2590  138.4629  163.7840 C.ar    1  UNL1        0.0503
      7 C         143.6439  138.6847  163.2523 C.ar    1  UNL1        0.0148
      8 C         143.8910  138.6673  161.7730 C.ar    1  UNL1        0.0060
      9 C         142.7532  138.4280  160.8253 C.ar    1  UNL1        0.0553
     10 C         141.3682  138.2063  161.3570 C.ar    1  UNL1        0.0060
     11 C         141.1211  138.2237  162.8363 C.ar    1  UNL1        0.0148
     12 O         141.6757  141.0551  165.1770 O.2     1  UNL1       -0.2748
     13 C         141.7202  139.7765  165.9599 C.2     1  UNL1        0.2256
     14 N         142.0118  138.4804  165.2635 N.am    1  UNL1       -0.2839
     15 H         142.0410  137.6411  165.7774 H       1  UNL1        0.1549
     16 C         141.4730  139.7939  167.4394 C.3     1  UNL1        0.0768
     17 C         142.5762  139.4301  168.3884 C.3     1  UNL1        0.0091
     18 C         142.3290  139.4475  169.8677 C.3     1  UNL1        0.0005
     19 C         140.9787  139.8288  170.3981 C.3     1  UNL1        0.0000
     20 C         139.8755  140.1926  169.4491 C.3     1  UNL1        0.0005
     21 C         140.1227  140.1752  167.9697 C.3     1  UNL1        0.0091
     22 N         142.7610  136.9639  155.7521 N.pl3   1  UNL1       -0.2871
     23 H         143.4895  136.4385  155.3488 H       1  UNL1        0.1512
     24 C         141.4083  136.9907  155.1045 C.3     1  UNL1        0.0912
     25 C         140.9571  135.8346  154.2619 C.3     1  UNL1        0.0227
     26 C         141.8041  134.6003  154.1667 C.3     1  UNL1        0.0191
     27 C         141.6716  133.5185  155.1973 C.3     1  UNL1        0.0721
     28 N         142.8846  133.0301  155.9322 N.3     1  UNL1       -0.2727
     29 C         143.2725  133.6565  157.2388 C.3     1  UNL1        0.0721
     30 C         144.4855  133.1681  157.9739 C.3     1  UNL1        0.0174
     31 C         145.3106  132.0534  157.4023 C.3     1  UNL1        0.0029
     32 C         144.9226  131.4271  156.0957 C.3     1  UNL1        0.0174
     33 C         143.7096  131.9154  155.3607 C.3     1  UNL1        0.0721
@<TRIPOS>BOND
     1    12    13    2
     2    13    14   am
     3    14     6    1
     4     6     7   ar
     5     7     8   ar
     6     8     9   ar
     7     9     1    1
     8     1     2   ar
     9     2     3   ar
    10     3     4   ar
    11     4    22    1
    12    22    24    1
    13    24    25    1
    14    25    26    1
    15    26    27    1
    16    27    28    1
    17    28    29    1
    18    29    30    1
    19    30    31    1
    20    31    32    1
    21    32    33    1
    22     4     5   ar
    23     9    10   ar
    24    10    11   ar
    25    13    16    1
    26    16    17    1
    27    17    18    1
    28    18    19    1
    29    19    20    1
    30    20    21    1
    31    11     6   ar
    32    21    16    1
    33     5     1   ar
    34    33    28    1
    35    14    15    1
    36    22    23    1
@<TRIPOS>MOLECULE
*****
 33 36 0 0 0
SMALL
GASTEIGER

@<TRIPOS>ATOM
      1 C         139.0731  139.0297  166.2688 C.ar    1  UNL1        0.2512
      2 N         137.8272  138.3131  166.6980 N.ar    1  UNL1       -0.1058
      3 N         137.5621  138.6628  168.1323 N.ar    1  UNL1       -0.0923
      4 C         138.6442  139.5956  168.5896 C.ar    1  UNL1        0.3086
      5 O         139.5780  139.8223  167.4378 O.2     1  UNL1       -0.4048
      6 C         140.9639  138.8357  162.1899 C.ar    1  UNL1        0.0503
      7 C         140.4545  140.1436  162.7189 C.ar    1  UNL1        0.0148
      8 C         139.8242  140.2082  164.0785 C.ar    1  UNL1        0.0060
      9 C         139.7034  138.9650  164.9091 C.ar    1  UNL1        0.0553
     10 C         140.2128  137.6572  164.3801 C.ar    1  UNL1        0.0060
     11 C         140.8431  137.5925  163.0205 C.ar    1  UNL1        0.0148
     12 O         139.2393  138.5957  159.7469 O.2     1  UNL1       -0.2748
     13 C         140.7319  138.6510  159.6088 C.2     1  UNL1        0.2256
     14 N         141.5942  138.7710  160.8302 N.am    1  UNL1       -0.2839
     15 H         142.5739  138.8074  160.7396 H       1  UNL1        0.1549
     16 C         141.3622  138.5863  158.2491 C.3     1  UNL1        0.0768
     17 C         140.8949  139.5072  157.1612 C.3     1  UNL1        0.0091
     18 C         141.5252  139.4425  155.8017 C.3     1  UNL1        0.0005
     19 C         142.6228  138.4569  155.5300 C.3     1  UNL1        0.0000
     20 C         143.0901  137.5360  156.6179 C.3     1  UNL1        0.0005
     21 C         142.4598  137.6007  157.9774 C.3     1  UNL1        0.0091
     22 N         138.7703  140.1962  169.9583 N.pl3   1  UNL1       -0.2871
     23 H         138.0017  140.6566  170.3666 H       1  UNL1        0.1512
     24 C         140.0673  140.0954  170.7050 C.3     1  UNL1        0.0912
     25 C         141.2021  141.0153  170.3645 C.3     1  UNL1        0.0227
     26 C         142.5191  140.4499  169.9220 C.3     1  UNL1        0.0191
     27 C         142.5580  139.3423  168.9112 C.3     1  UNL1        0.0721
     28 N         142.8951  139.6436  167.4809 N.3     1  UNL1       -0.2727
     29 C         142.7738  141.0454  166.9612 C.3     1  UNL1        0.0721
     30 C         143.1109  141.3469  165.5309 C.3     1  UNL1        0.0174
     31 C         143.5693  140.2464  164.6204 C.3     1  UNL1        0.0029
     32 C         143.6906  138.8446  165.1403 C.3     1  UNL1        0.0174
     33 C         143.3535  138.5432  166.5705 C.3     1  UNL1        0.0721
@<TRIPOS>BOND
     1    12    13    2
     2    13    14   am
     3    14     6    1
     4     6     7   ar
     5     7     8   ar
     6     8     9   ar
     7     9     1    1
     8     1     2   ar
     9     2     3   ar
    10     3     4   ar
    11     4    22    1
    12    22    24    1
    13    24    25    1
    14    25    26    1
    15    26    27    1
    16    27    28    1
    17    28    29    1
    18    29    30    1
    19    30    31    1
    20    31    32    1
    21    32    33    1
    22     4     5   ar
    23     9    10   ar
    24    10    11   ar
    25    13    16    1
    26    16    17    1
    27    17    18    1
    28    18    19    1
    29    19    20    1
    30    20    21    1
    31    11     6   ar
    32    21    16    1
    33     5     1   ar
    34    33    28    1
    35    14    15    1
    36    22    23    1
@<TRIPOS>MOLECULE
*****
 33 36 0 0 0
SMALL
GASTEIGER

@<TRIPOS>ATOM
      1 C         142.2689  142.7453  161.5352 C.ar    1  UNL1        0.2512
      2 N         143.1012  143.9770  161.3347 N.ar    1  UNL1       -0.1058
      3 N         142.6035  145.0315  162.2781 N.ar    1  UNL1       -0.0923
      4 C         141.4634  144.4516  163.0617 C.ar    1  UNL1        0.3086
      5 O         141.2566  143.0387  162.6026 O.2     1  UNL1       -0.4048
      6 C         142.7279  138.8536  159.3231 C.ar    1  UNL1        0.0503
      7 C         141.6454  139.0096  160.3496 C.ar    1  UNL1        0.0148
      8 C         141.4924  140.3068  161.0870 C.ar    1  UNL1        0.0060
      9 C         142.4219  141.4480  160.7978 C.ar    1  UNL1        0.0553
     10 C         143.5043  141.2921  159.7712 C.ar    1  UNL1        0.0060
     11 C         143.6573  139.9948  159.0338 C.ar    1  UNL1        0.0148
     12 O         141.2164  138.3901  156.7734 O.2     1  UNL1       -0.2748
     13 C         142.1252  137.3246  157.3108 C.2     1  UNL1        0.2256
     14 N         142.8809  137.5563  158.5856 N.am    1  UNL1       -0.2839
     15 H         143.4774  136.8570  158.9383 H       1  UNL1        0.1549
     16 C         142.2782  136.0273  156.5734 C.3     1  UNL1        0.0768
     17 C         143.3948  135.0904  156.9276 C.3     1  UNL1        0.0091
     18 C         143.5478  133.7932  156.1902 C.3     1  UNL1        0.0005
     19 C         142.5842  133.4329  155.0986 C.3     1  UNL1        0.0000
     20 C         141.4676  134.3698  154.7443 C.3     1  UNL1        0.0005
     21 C         141.3147  135.6670  155.4818 C.3     1  UNL1        0.0091
     22 N         140.6695  145.1603  164.1189 N.pl3   1  UNL1       -0.2871
     23 H         140.9645  146.0394  164.4495 H       1  UNL1        0.1512
     24 C         139.4262  144.5294  164.6722 C.3     1  UNL1        0.0912
     25 C         138.2799  144.2057  163.7606 C.3     1  UNL1        0.0227
     26 C         137.6530  142.8435  163.7986 C.3     1  UNL1        0.0191
     27 C         137.6872  141.9679  162.5812 C.3     1  UNL1        0.0721
     28 N         138.1083  140.5332  162.7008 N.3     1  UNL1       -0.2727
     29 C         137.7607  139.5568  161.6164 C.3     1  UNL1        0.0721
     30 C         138.1818  138.1220  161.7358 C.3     1  UNL1        0.0174
     31 C         138.9504  137.6637  162.9396 C.3     1  UNL1        0.0029
     32 C         139.2979  138.6401  164.0239 C.3     1  UNL1        0.0174
     33 C         138.8769  140.0749  163.9045 C.3     1  UNL1        0.0721
@<TRIPOS>BOND
     1    12    13    2
     2    13    14   am
     3    14     6    1
     4     6     7   ar
     5     7     8   ar
     6     8     9   ar
     7     9     1    1
     8     1     2   ar
     9     2     3   ar
    10     3     4   ar
    11     4    22    1
    12    22    24    1
    13    24    25    1
    14    25    26    1
    15    26    27    1
    16    27    28    1
    17    28    29    1
    18    29    30    1
    19    30    31    1
    20    31    32    1
    21    32    33    1
    22     4     5   ar
    23     9    10   ar
    24    10    11   ar
    25    13    16    1
    26    16    17    1
    27    17    18    1
    28    18    19    1
    29    19    20    1
    30    20    21    1
    31    11     6   ar
    32    21    16    1
    33     5     1   ar
    34    33    28    1
    35    14    15    1
    36    22    23    1
@<TRIPOS>MOLECULE
*****
 33 36 0 0 0
SMALL
GASTEIGER

@<TRIPOS>ATOM
      1 C         138.2910  141.5492  160.1573 C.ar    1  UNL1        0.2512
      2 N         137.8823  140.2986  159.4369 N.ar    1  UNL1       -0.1058
      3 N         137.5741  140.6626  158.0147 N.ar    1  UNL1       -0.0923
      4 C         137.7924  142.1382  157.8562 C.ar    1  UNL1        0.3086
      5 O         138.2355  142.6861  159.1804 O.2     1  UNL1       -0.4048
      6 C         139.4758  141.8393  164.4888 C.ar    1  UNL1        0.0503
      7 C         138.3401  142.6673  163.9649 C.ar    1  UNL1        0.0148
      8 C         137.9452  142.5706  162.5210 C.ar    1  UNL1        0.0060
      9 C         138.6860  141.6459  161.6012 C.ar    1  UNL1        0.0553
     10 C         139.8217  140.8179  162.1251 C.ar    1  UNL1        0.0060
     11 C         140.2166  140.9146  163.5689 C.ar    1  UNL1        0.0148
     12 O         142.2075  142.8308  165.2336 O.2     1  UNL1       -0.2748
     13 C         141.2366  142.4317  166.3051 C.2     1  UNL1        0.2256
     14 N         139.8707  141.9360  165.9327 N.am    1  UNL1       -0.2839
     15 H         139.2335  141.6740  166.6359 H       1  UNL1        0.1549
     16 C         141.6315  142.5284  167.7489 C.3     1  UNL1        0.0768
     17 C         140.6205  142.9416  168.7770 C.3     1  UNL1        0.0091
     18 C         141.0154  143.0382  170.2208 C.3     1  UNL1        0.0005
     19 C         142.4215  142.7217  170.6365 C.3     1  UNL1        0.0000
     20 C         143.4325  142.3085  169.6085 C.3     1  UNL1        0.0005
     21 C         143.0376  142.2118  168.1647 C.3     1  UNL1        0.0091
     22 N         137.6012  142.9273  156.5949 N.pl3   1  UNL1       -0.2871
     23 H         136.6990  143.0418  156.2179 H       1  UNL1        0.1512
     24 C         138.7846  143.5417  155.9080 C.3     1  UNL1        0.0912
     25 C         139.6391  144.5384  156.6338 C.3     1  UNL1        0.0227
     26 C         140.9128  144.0964  157.2912 C.3     1  UNL1        0.0191
     27 C         141.6446  145.0283  158.2110 C.3     1  UNL1        0.0721
     28 N         141.4277  144.9434  159.6928 N.3     1  UNL1       -0.2727
     29 C         142.2776  144.0287  160.5239 C.3     1  UNL1        0.0721
     30 C         142.0608  143.9437  162.0058 C.3     1  UNL1        0.0174
     31 C         140.9940  144.7736  162.6565 C.3     1  UNL1        0.0029
     32 C         140.1441  145.6883  161.8252 C.3     1  UNL1        0.0174
     33 C         140.3610  145.7732  160.3434 C.3     1  UNL1        0.0721
@<TRIPOS>BOND
     1    12    13    2
     2    13    14   am
     3    14     6    1
     4     6     7   ar
     5     7     8   ar
     6     8     9   ar
     7     9     1    1
     8     1     2   ar
     9     2     3   ar
    10     3     4   ar
    11     4    22    1
    12    22    24    1
    13    24    25    1
    14    25    26    1
    15    26    27    1
    16    27    28    1
    17    28    29    1
    18    29    30    1
    19    30    31    1
    20    31    32    1
    21    32    33    1
    22     4     5   ar
    23     9    10   ar
    24    10    11   ar
    25    13    16    1
    26    16    17    1
    27    17    18    1
    28    18    19    1
    29    19    20    1
    30    20    21    1
    31    11     6   ar
    32    21    16    1
    33     5     1   ar
    34    33    28    1
    35    14    15    1
    36    22    23    1
@<TRIPOS>MOLECULE
*****
 33 36 0 0 0
SMALL
GASTEIGER

@<TRIPOS>ATOM
      1 C         142.3228  142.7642  161.3928 C.ar    1  UNL1        0.2512
      2 N         143.3250  143.8783  161.4598 N.ar    1  UNL1       -0.1058
      3 N         142.7576  144.9605  162.3298 N.ar    1  UNL1       -0.0923
      4 C         141.4047  144.5152  162.8005 C.ar    1  UNL1        0.3086
      5 O         141.1360  143.1578  162.2214 O.2     1  UNL1       -0.4048
      6 C         142.7940  138.9165  159.1074 C.ar    1  UNL1        0.0503
      7 C         141.6980  139.0568  160.1219 C.ar    1  UNL1        0.0148
      8 C         141.5410  140.3393  160.8837 C.ar    1  UNL1        0.0060
      9 C         142.4799  141.4816  160.6310 C.ar    1  UNL1        0.0553
     10 C         143.5758  141.3412  159.6165 C.ar    1  UNL1        0.0060
     11 C         143.7328  140.0587  158.8547 C.ar    1  UNL1        0.0148
     12 O         140.9981  138.3257  156.7780 O.2     1  UNL1       -0.2748
     13 C         142.0531  137.3385  157.1809 C.2     1  UNL1        0.2256
     14 N         142.9511  137.6339  158.3456 N.am    1  UNL1       -0.2839
     15 H         143.6435  136.9859  158.6100 H       1  UNL1        0.1549
     16 C         142.2102  136.0559  156.4191 C.3     1  UNL1        0.0768
     17 C         141.1837  135.6582  155.4002 C.3     1  UNL1        0.0091
     18 C         141.3409  134.3757  154.6384 C.3     1  UNL1        0.0005
     19 C         142.5245  133.4908  154.8955 C.3     1  UNL1        0.0000
     20 C         143.5510  133.8885  155.9144 C.3     1  UNL1        0.0005
     21 C         143.3938  135.1711  156.6762 C.3     1  UNL1        0.0091
     22 N         140.4824  145.2911  163.6934 N.pl3   1  UNL1       -0.2871
     23 H         140.4346  146.2716  163.6190 H       1  UNL1        0.1512
     24 C         139.6329  144.5731  164.6998 C.3     1  UNL1        0.0912
     25 C         138.1583  144.4252  164.4674 C.3     1  UNL1        0.0227
     26 C         137.6570  143.8331  163.1837 C.3     1  UNL1        0.0191
     27 C         137.6869  142.3472  162.9811 C.3     1  UNL1        0.0721
     28 N         137.9053  141.7815  161.6092 N.3     1  UNL1       -0.2727
     29 C         137.6385  140.3291  161.3457 C.3     1  UNL1        0.0721
     30 C         137.8569  139.7632  159.9738 C.3     1  UNL1        0.0174
     31 C         138.3421  140.6497  158.8653 C.3     1  UNL1        0.0029
     32 C         138.6089  142.1021  159.1289 C.3     1  UNL1        0.0174
     33 C         138.3905  142.6679  160.5008 C.3     1  UNL1        0.0721
@<TRIPOS>BOND
     1    12    13    2
     2    13    14   am
     3    14     6    1
     4     6     7   ar
     5     7     8   ar
     6     8     9   ar
     7     9     1    1
     8     1     2   ar
     9     2     3   ar
    10     3     4   ar
    11     4    22    1
    12    22    24    1
    13    24    25    1
    14    25    26    1
    15    26    27    1
    16    27    28    1
    17    28    29    1
    18    29    30    1
    19    30    31    1
    20    31    32    1
    21    32    33    1
    22     4     5   ar
    23     9    10   ar
    24    10    11   ar
    25    13    16    1
    26    16    17    1
    27    17    18    1
    28    18    19    1
    29    19    20    1
    30    20    21    1
    31    11     6   ar
    32    21    16    1
    33     5     1   ar
    34    33    28    1
    35    14    15    1
    36    22    23    1
@<TRIPOS>MOLECULE
*****
 33 36 0 0 0
SMALL
GASTEIGER

@<TRIPOS>ATOM
      1 C         140.9548  144.8283  160.3669 C.ar    1  UNL1        0.2512
      2 N         139.8301  145.5445  159.6797 N.ar    1  UNL1       -0.1058
      3 N         140.2963  145.9309  158.3074 N.ar    1  UNL1       -0.0923
      4 C         141.7092  145.4536  158.1464 C.ar    1  UNL1        0.3086
      5 O         142.1162  144.7721  159.4192 O.2     1  UNL1       -0.4048
      6 C         140.8612  143.1442  164.5388 C.ar    1  UNL1        0.0503
      7 C         141.9429  144.1045  164.1418 C.ar    1  UNL1        0.0148
      8 C         141.9740  144.6659  162.7512 C.ar    1  UNL1        0.0060
      9 C         140.9236  144.2669  161.7576 C.ar    1  UNL1        0.0553
     10 C         139.8419  143.3065  162.1545 C.ar    1  UNL1        0.0060
     11 C         139.8107  142.7452  163.5452 C.ar    1  UNL1        0.0148
     12 O         141.8572  140.3620  165.0560 O.2     1  UNL1       -0.2748
     13 C         141.3280  141.1917  166.1880 C.2     1  UNL1        0.2256
     14 N         140.8300  142.5827  165.9295 N.am    1  UNL1       -0.2839
     15 H         140.4826  143.1273  166.6725 H       1  UNL1        0.1549
     16 C         141.2967  140.6303  167.5787 C.3     1  UNL1        0.0768
     17 C         142.4757  139.8676  168.1063 C.3     1  UNL1        0.0091
     18 C         142.4444  139.3063  169.4969 C.3     1  UNL1        0.0005
     19 C         141.2342  139.5075  170.3599 C.3     1  UNL1        0.0000
     20 C         140.0552  140.2701  169.8324 C.3     1  UNL1        0.0005
     21 C         140.0865  140.8315  168.4417 C.3     1  UNL1        0.0091
     22 N         142.5650  145.6272  156.9267 N.pl3   1  UNL1       -0.2871
     23 H         143.0850  146.4541  156.8039 H       1  UNL1        0.1512
     24 C         142.6284  144.5410  155.8943 C.3     1  UNL1        0.0912
     25 C         142.2300  143.1402  156.2538 C.3     1  UNL1        0.0227
     26 C         143.2754  142.1439  156.6596 C.3     1  UNL1        0.0191
     27 C         144.2122  142.4574  157.7882 C.3     1  UNL1        0.0721
     28 N         143.8616  142.0511  159.1889 N.3     1  UNL1       -0.2727
     29 C         142.6343  141.2279  159.4460 C.3     1  UNL1        0.0721
     30 C         142.2836  140.8216  160.8468 C.3     1  UNL1        0.0174
     31 C         143.1602  141.2384  161.9903 C.3     1  UNL1        0.0029
     32 C         144.3875  142.0616  161.7331 C.3     1  UNL1        0.0174
     33 C         144.7382  142.4679  160.3324 C.3     1  UNL1        0.0721
@<TRIPOS>BOND
     1    12    13    2
     2    13    14   am
     3    14     6    1
     4     6     7   ar
     5     7     8   ar
     6     8     9   ar
     7     9     1    1
     8     1     2   ar
     9     2     3   ar
    10     3     4   ar
    11     4    22    1
    12    22    24    1
    13    24    25    1
    14    25    26    1
    15    26    27    1
    16    27    28    1
    17    28    29    1
    18    29    30    1
    19    30    31    1
    20    31    32    1
    21    32    33    1
    22     4     5   ar
    23     9    10   ar
    24    10    11   ar
    25    13    16    1
    26    16    17    1
    27    17    18    1
    28    18    19    1
    29    19    20    1
    30    20    21    1
    31    11     6   ar
    32    21    16    1
    33     5     1   ar
    34    33    28    1
    35    14    15    1
    36    22    23    1
@<TRIPOS>MOLECULE
*****
 33 36 0 0 0
SMALL
GASTEIGER

@<TRIPOS>ATOM
      1 C         139.3028  142.4090  161.1211 C.ar    1  UNL1        0.2512
      2 N         137.9690  143.0756  161.2846 N.ar    1  UNL1       -0.1058
      3 N         138.1251  144.1871  162.2796 N.ar    1  UNL1       -0.0923
      4 C         139.5555  144.2075  162.7312 C.ar    1  UNL1        0.3086
      5 O         140.2833  143.1086  162.0152 O.2     1  UNL1       -0.4048
      6 C         140.2044  138.9227  158.4225 C.ar    1  UNL1        0.0503
      7 C         139.9974  138.7002  159.8914 C.ar    1  UNL1        0.0148
      8 C         139.6969  139.8623  160.7909 C.ar    1  UNL1        0.0060
      9 C         139.6034  141.2469  160.2215 C.ar    1  UNL1        0.0553
     10 C         139.8104  141.4694  158.7527 C.ar    1  UNL1        0.0060
     11 C         140.1109  140.3073  157.8532 C.ar    1  UNL1        0.0148
     12 O         143.0493  138.1253  157.9018 O.2     1  UNL1       -0.2748
     13 C         141.9274  137.3619  157.2626 C.2     1  UNL1        0.2256
     14 N         140.5050  137.7606  157.5229 N.am    1  UNL1       -0.2839
     15 H         139.7686  137.2596  157.1033 H       1  UNL1        0.1549
     16 C         142.2279  136.1998  156.3629 C.3     1  UNL1        0.0768
     17 C         143.2684  135.1945  156.7587 C.3     1  UNL1        0.0091
     18 C         143.5689  134.0324  155.8591 C.3     1  UNL1        0.0005
     19 C         142.8289  133.8757  154.5638 C.3     1  UNL1        0.0000
     20 C         141.7884  134.8810  154.1681 C.3     1  UNL1        0.0005
     21 C         141.4879  136.0430  155.0677 C.3     1  UNL1        0.0091
     22 N         140.1530  145.1596  163.7244 N.pl3   1  UNL1       -0.2871
     23 H         139.6072  145.5005  164.4695 H       1  UNL1        0.1512
     24 C         141.5821  145.5925  163.5823 C.3     1  UNL1        0.0912
     25 C         142.6909  144.6167  163.8439 C.3     1  UNL1        0.0227
     26 C         143.9891  144.7400  163.1026 C.3     1  UNL1        0.0191
     27 C         144.4593  143.6204  162.2223 C.3     1  UNL1        0.0721
     28 N         144.3432  142.1996  162.6892 N.3     1  UNL1       -0.2727
     29 C         145.3518  141.6408  163.6486 C.3     1  UNL1        0.0721
     30 C         145.2359  140.2200  164.1156 C.3     1  UNL1        0.0174
     31 C         144.1113  139.3581  163.6231 C.3     1  UNL1        0.0029
     32 C         143.1028  139.9171  162.6638 C.3     1  UNL1        0.0174
     33 C         143.2187  141.3378  162.1968 C.3     1  UNL1        0.0721
@<TRIPOS>BOND
     1    12    13    2
     2    13    14   am
     3    14     6    1
     4     6     7   ar
     5     7     8   ar
     6     8     9   ar
     7     9     1    1
     8     1     2   ar
     9     2     3   ar
    10     3     4   ar
    11     4    22    1
    12    22    24    1
    13    24    25    1
    14    25    26    1
    15    26    27    1
    16    27    28    1
    17    28    29    1
    18    29    30    1
    19    30    31    1
    20    31    32    1
    21    32    33    1
    22     4     5   ar
    23     9    10   ar
    24    10    11   ar
    25    13    16    1
    26    16    17    1
    27    17    18    1
    28    18    19    1
    29    19    20    1
    30    20    21    1
    31    11     6   ar
    32    21    16    1
    33     5     1   ar
    34    33    28    1
    35    14    15    1
    36    22    23    1
