@<TRIPOS>MOLECULE
*****
 32 35 0 0 0
SMALL
GASTEIGER

@<TRIPOS>ATOM
      1 N         144.2979  139.9457  163.8697 N.3     1  UNL1       -0.2700
      2 C         143.4110  139.5881  162.7141 C.3     1  UNL1        0.0897
      3 C         142.2415  138.6719  162.9216 C.3     1  UNL1        0.0897
      4 N         141.9590  138.1134  164.2848 N.3     1  UNL1       -0.2677
      5 C         142.8459  138.4710  165.4405 C.3     1  UNL1        0.0897
      6 C         144.0154  139.3872  165.2329 C.3     1  UNL1        0.0897
      7 C         145.4674  140.8618  163.6622 C.3     1  UNL1        0.0769
      8 C         145.3438  142.3211  163.9864 C.3     1  UNL1        0.0438
      9 C         142.7275  144.1011  161.5914 C.ar    1  UNL1        0.1479
     10 C         143.9261  143.3284  162.0563 C.ar    1  UNL1        0.0334
     11 C         144.1451  143.0938  163.5216 C.ar    1  UNL1       -0.0177
     12 C         143.1654  143.6318  164.5219 C.ar    1  UNL1       -0.0033
     13 C         141.9667  144.4044  164.0570 C.ar    1  UNL1        0.0130
     14 C         141.7477  144.6391  162.5917 C.ar    1  UNL1        0.1023
     15 C         143.0055  143.3364  159.1240 C.3     1  UNL1        0.2525
     16 O         142.5084  144.3358  160.1261 O.3     1  UNL1       -0.4708
     17 C         140.5490  145.4117  162.1269 C.1     1  UNL1        0.1035
     18 N         139.3503  146.1845  161.6621 N.1     1  UNL1       -0.1907
     19 C         140.7896  137.1973  164.4923 C.3     1  UNL1        0.1125
     20 C         139.4821  137.7486  164.9788 C.3     1  UNL1        0.1988
     21 F         138.4443  136.8265  165.5469 F       1  UNL1       -0.2309
     22 C         139.2125  139.2220  164.8973 C.ar    1  UNL1        0.0071
     23 C         139.6255  140.1234  166.0227 C.ar    1  UNL1       -0.0017
     24 C         139.3559  141.5967  165.9412 C.ar    1  UNL1        0.0060
     25 C         138.6732  142.1685  164.7341 C.ar    1  UNL1        0.0748
     26 C         138.2602  141.2671  163.6086 C.ar    1  UNL1        0.0234
     27 C         138.5298  139.7938  163.6901 C.ar    1  UNL1       -0.0235
     28 C         138.1168  138.8922  162.5646 C.3     1  UNL1        0.0306
     29 C         137.6097  142.1114  162.5532 C.3     1  UNL1        0.2352
     30 O         137.6207  143.5348  163.0265 O.3     1  UNL1       -0.4404
     31 C         138.2780  143.5701  164.3743 C.2     1  UNL1        0.3413
     32 O         138.5009  144.7923  165.2148 O.2     1  UNL1       -0.2449
@<TRIPOS>BOND
     1    15    16    1
     2    16     9    1
     3     9    10   ar
     4    10    11   ar
     5    11     8    1
     6     8     7    1
     7     7     1    1
     8     1     2    1
     9     2     3    1
    10     3     4    1
    11     4    19    1
    12    19    20    1
    13    20    21    1
    14    20    22    1
    15    22    23   ar
    16    23    24   ar
    17    24    25   ar
    18    25    26   ar
    19    26    27   ar
    20    27    28    1
    21    26    29    1
    22    29    30    1
    23    30    31    1
    24    31    32    2
    25     4     5    1
    26     5     6    1
    27    11    12   ar
    28    12    13   ar
    29    13    14   ar
    30    14    17    1
    31    17    18    3
    32    14     9   ar
    33     6     1    1
    34    27    22   ar
    35    31    25    1
@<TRIPOS>MOLECULE
*****
 32 35 0 0 0
SMALL
GASTEIGER

@<TRIPOS>ATOM
      1 N         144.2514  139.8608  163.9951 N.3     1  UNL1       -0.2700
      2 C         143.6774  139.0853  162.8465 C.3     1  UNL1        0.0897
      3 C         142.5409  138.1340  163.0772 C.3     1  UNL1        0.0897
      4 N         141.9783  137.9582  164.4566 N.3     1  UNL1       -0.2677
      5 C         142.5523  138.7337  165.6052 C.3     1  UNL1        0.0897
      6 C         143.6888  139.6849  165.3744 C.3     1  UNL1        0.0897
      7 C         145.3880  140.8121  163.7643 C.3     1  UNL1        0.0769
      8 C         145.2380  142.2609  164.1228 C.3     1  UNL1        0.0438
      9 C         142.7303  144.0960  161.6543 C.ar    1  UNL1        0.1479
     10 C         143.9107  143.3178  162.1553 C.ar    1  UNL1        0.0334
     11 C         144.0576  143.0391  163.6219 C.ar    1  UNL1       -0.0177
     12 C         143.0241  143.5387  164.5875 C.ar    1  UNL1       -0.0033
     13 C         141.8437  144.3170  164.0865 C.ar    1  UNL1        0.0130
     14 C         141.6968  144.5956  162.6199 C.ar    1  UNL1        0.1023
     15 C         142.7061  143.2563  159.1959 C.3     1  UNL1        0.2525
     16 O         142.5833  144.3748  160.1878 O.3     1  UNL1       -0.4708
     17 C         140.5163  145.3739  162.1190 C.1     1  UNL1        0.1035
     18 N         139.3359  146.1522  161.6183 N.1     1  UNL1       -0.1907
     19 C         140.8417  137.0069  164.6873 C.3     1  UNL1        0.1125
     20 C         139.4384  137.5263  164.7912 C.3     1  UNL1        0.1988
     21 F         138.4252  136.7897  165.6165 F       1  UNL1       -0.2309
     22 C         139.0481  138.7822  164.0698 C.ar    1  UNL1        0.0071
     23 C         138.8956  138.7735  162.5776 C.ar    1  UNL1       -0.0017
     24 C         138.5054  140.0294  161.8562 C.ar    1  UNL1        0.0060
     25 C         138.2675  141.2940  162.6270 C.ar    1  UNL1        0.0748
     26 C         138.4200  141.3027  164.1192 C.ar    1  UNL1        0.0234
     27 C         138.8102  140.0469  164.8407 C.ar    1  UNL1       -0.0235
     28 C         138.9627  140.0555  166.3329 C.3     1  UNL1        0.0306
     29 C         138.1222  142.6894  164.6075 C.3     1  UNL1        0.2352
     30 O         137.7857  143.5377  163.4171 O.3     1  UNL1       -0.4404
     31 C         137.8755  142.6753  162.1930 C.2     1  UNL1        0.3413
     32 O         137.6185  143.1167  160.7827 O.2     1  UNL1       -0.2449
@<TRIPOS>BOND
     1    15    16    1
     2    16     9    1
     3     9    10   ar
     4    10    11   ar
     5    11     8    1
     6     8     7    1
     7     7     1    1
     8     1     2    1
     9     2     3    1
    10     3     4    1
    11     4    19    1
    12    19    20    1
    13    20    21    1
    14    20    22    1
    15    22    23   ar
    16    23    24   ar
    17    24    25   ar
    18    25    26   ar
    19    26    27   ar
    20    27    28    1
    21    26    29    1
    22    29    30    1
    23    30    31    1
    24    31    32    2
    25     4     5    1
    26     5     6    1
    27    11    12   ar
    28    12    13   ar
    29    13    14   ar
    30    14    17    1
    31    17    18    3
    32    14     9   ar
    33     6     1    1
    34    27    22   ar
    35    31    25    1
@<TRIPOS>MOLECULE
*****
 32 35 0 0 0
SMALL
GASTEIGER

@<TRIPOS>ATOM
      1 N         143.7353  139.1061  161.9182 N.3     1  UNL1       -0.2700
      2 C         144.1232  138.9710  163.3609 C.3     1  UNL1        0.0897
      3 C         144.7311  140.1347  164.0863 C.3     1  UNL1        0.0897
      4 N         144.9511  141.4336  163.3689 N.3     1  UNL1       -0.2677
      5 C         144.5632  141.5687  161.9262 C.3     1  UNL1        0.0897
      6 C         143.9553  140.4050  161.2010 C.3     1  UNL1        0.0897
      7 C         143.1274  137.9424  161.1929 C.3     1  UNL1        0.0769
      8 C         141.6359  137.8162  161.0942 C.3     1  UNL1        0.0438
      9 C         138.8565  139.0997  163.6194 C.ar    1  UNL1        0.1479
     10 C         139.7029  138.9740  162.3875 C.ar    1  UNL1        0.0334
     11 C         140.7895  137.9418  162.3262 C.ar    1  UNL1       -0.0177
     12 C         141.0297  137.0353  163.4969 C.ar    1  UNL1       -0.0033
     13 C         140.1832  137.1610  164.7288 C.ar    1  UNL1        0.0130
     14 C         139.0966  138.1932  164.7901 C.ar    1  UNL1        0.1023
     15 C         137.4906  140.9986  162.4887 C.3     1  UNL1        0.2525
     16 O         137.7698  140.1320  163.6808 O.3     1  UNL1       -0.4708
     17 C         138.2502  138.3188  166.0221 C.1     1  UNL1        0.1035
     18 N         137.4037  138.4444  167.2541 N.1     1  UNL1       -0.1907
     19 C         145.5591  142.5973  164.0943 C.3     1  UNL1        0.1125
     20 C         144.6932  143.5010  164.9210 C.3     1  UNL1        0.1988
     21 F         145.2355  144.1168  166.1767 F       1  UNL1       -0.2309
     22 C         143.2848  143.7889  164.4921 C.ar    1  UNL1        0.0071
     23 C         143.0252  144.7295  163.3530 C.ar    1  UNL1       -0.0017
     24 C         141.6170  145.0174  162.9241 C.ar    1  UNL1        0.0060
     25 C         140.4683  144.3646  163.6344 C.ar    1  UNL1        0.0748
     26 C         140.7280  143.4240  164.7736 C.ar    1  UNL1        0.0234
     27 C         142.1362  143.1361  165.2025 C.ar    1  UNL1       -0.0235
     28 C         142.3959  142.1954  166.3417 C.3     1  UNL1        0.0306
     29 C         139.4042  142.9329  165.2802 C.3     1  UNL1        0.2352
     30 O         138.3265  143.5701  164.4541 O.3     1  UNL1       -0.4404
     31 C         138.9841  144.4550  163.4369 C.2     1  UNL1        0.3413
     32 O         138.2810  145.2845  162.4037 O.2     1  UNL1       -0.2449
@<TRIPOS>BOND
     1    15    16    1
     2    16     9    1
     3     9    10   ar
     4    10    11   ar
     5    11     8    1
     6     8     7    1
     7     7     1    1
     8     1     2    1
     9     2     3    1
    10     3     4    1
    11     4    19    1
    12    19    20    1
    13    20    21    1
    14    20    22    1
    15    22    23   ar
    16    23    24   ar
    17    24    25   ar
    18    25    26   ar
    19    26    27   ar
    20    27    28    1
    21    26    29    1
    22    29    30    1
    23    30    31    1
    24    31    32    2
    25     4     5    1
    26     5     6    1
    27    11    12   ar
    28    12    13   ar
    29    13    14   ar
    30    14    17    1
    31    17    18    3
    32    14     9   ar
    33     6     1    1
    34    27    22   ar
    35    31    25    1
@<TRIPOS>MOLECULE
*****
 32 35 0 0 0
SMALL
GASTEIGER

@<TRIPOS>ATOM
      1 N         140.1556  139.5291  160.9200 N.3     1  UNL1       -0.2700
      2 C         141.1560  140.6381  160.7807 C.3     1  UNL1        0.0897
      3 C         142.5031  140.5188  161.4295 C.3     1  UNL1        0.0897
      4 N         142.8499  139.2904  162.2176 N.3     1  UNL1       -0.2677
      5 C         141.8495  138.1814  162.3568 C.3     1  UNL1        0.0897
      6 C         140.5024  138.3008  161.7080 C.3     1  UNL1        0.0897
      7 C         138.8085  139.6483  160.2712 C.3     1  UNL1        0.0769
      8 C         137.6234  140.0886  161.0786 C.3     1  UNL1        0.0438
      9 C         138.0693  143.6755  162.7172 C.ar    1  UNL1        0.1479
     10 C         137.9151  142.5979  161.6852 C.ar    1  UNL1        0.0334
     11 C         137.7775  141.1661  162.1107 C.ar    1  UNL1       -0.0177
     12 C         137.7941  140.8119  163.5681 C.ar    1  UNL1       -0.0033
     13 C         137.9482  141.8894  164.6001 C.ar    1  UNL1        0.0130
     14 C         138.0858  143.3212  164.1747 C.ar    1  UNL1        0.1023
     15 C         139.5652  145.6801  162.0148 C.3     1  UNL1        0.2525
     16 O         138.2069  145.1073  162.2919 O.3     1  UNL1       -0.4708
     17 C         138.2400  144.3988  165.2068 C.1     1  UNL1        0.1035
     18 N         138.3942  145.4762  166.2390 N.1     1  UNL1       -0.1907
     19 C         144.1970  139.1711  162.8664 C.3     1  UNL1        0.1125
     20 C         144.5449  140.0409  164.0378 C.3     1  UNL1        0.1988
     21 F         145.7959  140.8682  164.0124 F       1  UNL1       -0.2309
     22 C         143.6417  140.0836  165.2348 C.ar    1  UNL1        0.0071
     23 C         143.5837  138.9143  166.1725 C.ar    1  UNL1       -0.0017
     24 C         142.6806  138.9569  167.3694 C.ar    1  UNL1        0.0060
     25 C         141.8355  140.1688  167.6286 C.ar    1  UNL1        0.0748
     26 C         141.8935  141.3381  166.6908 C.ar    1  UNL1        0.0234
     27 C         142.7966  141.2955  165.4939 C.ar    1  UNL1       -0.0235
     28 C         142.8547  142.4648  164.5561 C.3     1  UNL1        0.0306
     29 C         140.9516  142.3883  167.2005 C.3     1  UNL1        0.2352
     30 O         140.3114  141.8680  168.4532 O.3     1  UNL1       -0.4404
     31 C         140.8577  140.4963  168.7178 C.2     1  UNL1        0.3413
     32 O         140.4906  139.6081  169.8695 O.2     1  UNL1       -0.2449
@<TRIPOS>BOND
     1    15    16    1
     2    16     9    1
     3     9    10   ar
     4    10    11   ar
     5    11     8    1
     6     8     7    1
     7     7     1    1
     8     1     2    1
     9     2     3    1
    10     3     4    1
    11     4    19    1
    12    19    20    1
    13    20    21    1
    14    20    22    1
    15    22    23   ar
    16    23    24   ar
    17    24    25   ar
    18    25    26   ar
    19    26    27   ar
    20    27    28    1
    21    26    29    1
    22    29    30    1
    23    30    31    1
    24    31    32    2
    25     4     5    1
    26     5     6    1
    27    11    12   ar
    28    12    13   ar
    29    13    14   ar
    30    14    17    1
    31    17    18    3
    32    14     9   ar
    33     6     1    1
    34    27    22   ar
    35    31    25    1
@<TRIPOS>MOLECULE
*****
 32 35 0 0 0
SMALL
GASTEIGER

@<TRIPOS>ATOM
      1 N         144.2419  139.7795  164.0443 N.3     1  UNL1       -0.2700
      2 C         143.5631  139.6024  165.3702 C.3     1  UNL1        0.0897
      3 C         142.3498  138.7275  165.4807 C.3     1  UNL1        0.0897
      4 N         141.8151  138.0297  164.2652 N.3     1  UNL1       -0.2677
      5 C         142.4939  138.2067  162.9393 C.3     1  UNL1        0.0897
      6 C         143.7072  139.0816  162.8289 C.3     1  UNL1        0.0897
      7 C         145.4553  140.6544  163.9338 C.3     1  UNL1        0.0769
      8 C         145.3157  142.1452  164.0230 C.3     1  UNL1        0.0438
      9 C         142.1420  144.4010  163.2555 C.ar    1  UNL1        0.1479
     10 C         143.2372  143.7038  164.0069 C.ar    1  UNL1        0.0334
     11 C         144.2206  142.8423  163.2715 C.ar    1  UNL1       -0.0177
     12 C         144.1088  142.6779  161.7848 C.ar    1  UNL1       -0.0033
     13 C         143.0136  143.3750  161.0334 C.ar    1  UNL1        0.0130
     14 C         142.0303  144.2365  161.7687 C.ar    1  UNL1        0.1023
     15 C         140.0781  144.6299  164.8167 C.3     1  UNL1        0.2525
     16 O         141.1586  145.2625  163.9907 O.3     1  UNL1       -0.4708
     17 C         140.9351  144.9336  161.0172 C.1     1  UNL1        0.1035
     18 N         139.8400  145.6308  160.2656 N.1     1  UNL1       -0.1907
     19 C         140.6018  137.1548  164.3757 C.3     1  UNL1        0.1125
     20 C         139.2707  137.7578  164.7142 C.3     1  UNL1        0.1988
     21 F         138.3128  137.0136  165.5967 F       1  UNL1       -0.2309
     22 C         138.8974  139.1050  164.1703 C.ar    1  UNL1        0.0071
     23 C         138.6976  140.2617  165.1041 C.ar    1  UNL1       -0.0017
     24 C         138.3244  141.6088  164.5603 C.ar    1  UNL1        0.0060
     25 C         138.1510  141.7993  163.0826 C.ar    1  UNL1        0.0748
     26 C         138.3509  140.6426  162.1487 C.ar    1  UNL1        0.0234
     27 C         138.7241  139.2954  162.6925 C.ar    1  UNL1       -0.0235
     28 C         138.9240  138.1386  161.7587 C.3     1  UNL1        0.0306
     29 C         138.1125  141.1294  160.7501 C.3     1  UNL1        0.2352
     30 O         137.7654  142.5870  160.8195 O.3     1  UNL1       -0.4404
     31 C         137.7891  143.0011  162.2611 C.2     1  UNL1        0.3413
     32 O         137.5015  144.3755  162.7885 O.2     1  UNL1       -0.2449
@<TRIPOS>BOND
     1    15    16    1
     2    16     9    1
     3     9    10   ar
     4    10    11   ar
     5    11     8    1
     6     8     7    1
     7     7     1    1
     8     1     2    1
     9     2     3    1
    10     3     4    1
    11     4    19    1
    12    19    20    1
    13    20    21    1
    14    20    22    1
    15    22    23   ar
    16    23    24   ar
    17    24    25   ar
    18    25    26   ar
    19    26    27   ar
    20    27    28    1
    21    26    29    1
    22    29    30    1
    23    30    31    1
    24    31    32    2
    25     4     5    1
    26     5     6    1
    27    11    12   ar
    28    12    13   ar
    29    13    14   ar
    30    14    17    1
    31    17    18    3
    32    14     9   ar
    33     6     1    1
    34    27    22   ar
    35    31    25    1
@<TRIPOS>MOLECULE
*****
 32 35 0 0 0
SMALL
GASTEIGER

@<TRIPOS>ATOM
      1 N         139.8257  138.0616  164.4211 N.3     1  UNL1       -0.2700
      2 C         141.2088  138.1651  164.9921 C.3     1  UNL1        0.0897
      3 C         142.3988  138.1703  164.0790 C.3     1  UNL1        0.0897
      4 N         142.2055  138.0721  162.5947 N.3     1  UNL1       -0.2677
      5 C         140.8224  137.9687  162.0236 C.3     1  UNL1        0.0897
      6 C         139.6325  137.9634  162.9368 C.3     1  UNL1        0.0897
      7 C         138.6357  138.0564  165.3342 C.3     1  UNL1        0.0769
      8 C         138.1007  139.3486  165.8766 C.3     1  UNL1        0.0438
      9 C         138.1322  142.2222  163.1396 C.ar    1  UNL1        0.1479
     10 C         137.8196  140.9303  163.8349 C.ar    1  UNL1        0.0334
     11 C         138.4134  140.6405  165.1815 C.ar    1  UNL1       -0.0177
     12 C         139.3198  141.6425  165.8329 C.ar    1  UNL1       -0.0033
     13 C         139.6325  142.9343  165.1377 C.ar    1  UNL1        0.0130
     14 C         139.0387  143.2242  163.7910 C.ar    1  UNL1        0.1023
     15 C         138.2712  142.1091  160.5478 C.3     1  UNL1        0.2525
     16 O         137.5385  142.5121  161.7930 O.3     1  UNL1       -0.4708
     17 C         139.3514  144.5161  163.0959 C.1     1  UNL1        0.1035
     18 N         139.6641  145.8081  162.4008 N.1     1  UNL1       -0.1907
     19 C         143.3955  138.0773  161.6815 C.3     1  UNL1        0.1125
     20 C         143.9725  139.3787  161.2089 C.3     1  UNL1        0.1988
     21 F         144.3680  139.5459  159.7716 F       1  UNL1       -0.2309
     22 C         144.1541  140.5130  162.1736 C.ar    1  UNL1        0.0071
     23 C         145.1512  140.3974  163.2881 C.ar    1  UNL1       -0.0017
     24 C         145.3327  141.5316  164.2528 C.ar    1  UNL1        0.0060
     25 C         144.5171  142.7815  164.1028 C.ar    1  UNL1        0.0748
     26 C         143.5199  142.8972  162.9883 C.ar    1  UNL1        0.0234
     27 C         143.3384  141.7630  162.0236 C.ar    1  UNL1       -0.0235
     28 C         142.3412  141.8786  160.9090 C.3     1  UNL1        0.0306
     29 C         142.8636  144.2420  163.0911 C.3     1  UNL1        0.2352
     30 O         143.4552  144.9575  164.2693 O.3     1  UNL1       -0.4404
     31 C         144.4771  144.0549  164.8946 C.2     1  UNL1        0.3413
     32 O         145.3123  144.3703  166.1000 O.2     1  UNL1       -0.2449
@<TRIPOS>BOND
     1    15    16    1
     2    16     9    1
     3     9    10   ar
     4    10    11   ar
     5    11     8    1
     6     8     7    1
     7     7     1    1
     8     1     2    1
     9     2     3    1
    10     3     4    1
    11     4    19    1
    12    19    20    1
    13    20    21    1
    14    20    22    1
    15    22    23   ar
    16    23    24   ar
    17    24    25   ar
    18    25    26   ar
    19    26    27   ar
    20    27    28    1
    21    26    29    1
    22    29    30    1
    23    30    31    1
    24    31    32    2
    25     4     5    1
    26     5     6    1
    27    11    12   ar
    28    12    13   ar
    29    13    14   ar
    30    14    17    1
    31    17    18    3
    32    14     9   ar
    33     6     1    1
    34    27    22   ar
    35    31    25    1
@<TRIPOS>MOLECULE
*****
 32 35 0 0 0
SMALL
GASTEIGER

@<TRIPOS>ATOM
      1 N         137.9130  140.4599  161.7065 N.3     1  UNL1       -0.2700
      2 C         137.5085  140.4577  163.1509 C.3     1  UNL1        0.0897
      3 C         137.4441  141.7477  163.9137 C.3     1  UNL1        0.0897
      4 N         137.7844  143.0398  163.2319 N.3     1  UNL1       -0.2677
      5 C         138.1889  143.0420  161.7875 C.3     1  UNL1        0.0897
      6 C         138.2532  141.7520  161.0248 C.3     1  UNL1        0.0897
      7 C         137.9773  139.1699  160.9437 C.3     1  UNL1        0.0769
      8 C         138.3969  137.9081  161.6379 C.3     1  UNL1        0.0438
      9 C         142.0590  138.1391  163.1496 C.ar    1  UNL1        0.1479
     10 C         140.9343  138.1109  162.1575 C.ar    1  UNL1        0.0334
     11 C         139.5214  137.9363  162.6301 C.ar    1  UNL1       -0.0177
     12 C         139.2332  137.7899  164.0949 C.ar    1  UNL1       -0.0033
     13 C         140.3579  137.8181  165.0870 C.ar    1  UNL1        0.0130
     14 C         141.7707  137.9927  164.6144 C.ar    1  UNL1        0.1023
     15 C         143.8573  137.8873  161.2916 C.3     1  UNL1        0.2525
     16 O         143.4719  138.3136  162.6771 O.3     1  UNL1       -0.4708
     17 C         142.8954  138.0209  165.6067 C.1     1  UNL1        0.1035
     18 N         144.0200  138.0490  166.5988 N.1     1  UNL1       -0.1907
     19 C         137.7201  144.3298  163.9947 C.3     1  UNL1        0.1125
     20 C         138.8361  144.7090  164.9224 C.3     1  UNL1        0.1988
     21 F         138.5645  145.6016  166.0969 F       1  UNL1       -0.2309
     22 C         140.2238  144.1955  164.6756 C.ar    1  UNL1        0.0071
     23 C         141.0534  144.7780  163.5700 C.ar    1  UNL1       -0.0017
     24 C         142.4410  144.2646  163.3231 C.ar    1  UNL1        0.0060
     25 C         142.9990  143.1687  164.1820 C.ar    1  UNL1        0.0748
     26 C         142.1694  142.5862  165.2876 C.ar    1  UNL1        0.0234
     27 C         140.7818  143.0996  165.5345 C.ar    1  UNL1       -0.0235
     28 C         139.9521  142.5171  166.6401 C.3     1  UNL1        0.0306
     29 C         142.9814  141.5225  165.9654 C.3     1  UNL1        0.2352
     30 O         144.3128  141.4477  165.2786 O.3     1  UNL1       -0.4404
     31 C         144.3237  142.4651  164.1764 C.2     1  UNL1        0.3413
     32 O         145.4598  142.7319  163.2340 O.2     1  UNL1       -0.2449
@<TRIPOS>BOND
     1    15    16    1
     2    16     9    1
     3     9    10   ar
     4    10    11   ar
     5    11     8    1
     6     8     7    1
     7     7     1    1
     8     1     2    1
     9     2     3    1
    10     3     4    1
    11     4    19    1
    12    19    20    1
    13    20    21    1
    14    20    22    1
    15    22    23   ar
    16    23    24   ar
    17    24    25   ar
    18    25    26   ar
    19    26    27   ar
    20    27    28    1
    21    26    29    1
    22    29    30    1
    23    30    31    1
    24    31    32    2
    25     4     5    1
    26     5     6    1
    27    11    12   ar
    28    12    13   ar
    29    13    14   ar
    30    14    17    1
    31    17    18    3
    32    14     9   ar
    33     6     1    1
    34    27    22   ar
    35    31    25    1
@<TRIPOS>MOLECULE
*****
 32 35 0 0 0
SMALL
GASTEIGER

@<TRIPOS>ATOM
      1 N         142.2153  138.6415  164.5420 N.3     1  UNL1       -0.2700
      2 C         142.4103  139.0976  163.1264 C.3     1  UNL1        0.0897
      3 C         141.2792  139.0038  162.1456 C.3     1  UNL1        0.0897
      4 N         139.9532  138.4537  162.5806 N.3     1  UNL1       -0.2677
      5 C         139.7582  137.9976  163.9962 C.3     1  UNL1        0.0897
      6 C         140.8893  138.0915  164.9769 C.3     1  UNL1        0.0897
      7 C         143.3464  138.7354  165.5227 C.3     1  UNL1        0.0769
      8 C         143.0648  138.7221  166.9960 C.3     1  UNL1        0.0438
      9 C         140.8359  140.9593  169.3994 C.ar    1  UNL1        0.1479
     10 C         141.4398  139.7548  168.7403 C.ar    1  UNL1        0.0334
     11 C         142.4610  139.9266  167.6551 C.ar    1  UNL1       -0.0177
     12 C         142.8782  141.3030  167.2289 C.ar    1  UNL1       -0.0033
     13 C         142.2743  142.5075  167.8881 C.ar    1  UNL1        0.0130
     14 C         141.2531  142.3356  168.9733 C.ar    1  UNL1        0.1023
     15 C         138.4559  140.2434  170.1565 C.3     1  UNL1        0.2525
     16 O         139.8147  140.7876  170.4847 O.3     1  UNL1       -0.4708
     17 C         140.6493  143.5403  169.6323 C.1     1  UNL1        0.1035
     18 N         140.0455  144.7449  170.2915 N.1     1  UNL1       -0.1907
     19 C         138.8221  138.3598  161.5999 C.3     1  UNL1        0.1125
     20 C         137.8980  139.5255  161.4070 C.3     1  UNL1        0.1988
     21 F         136.7696  139.4333  160.4230 F       1  UNL1       -0.2309
     22 C         138.1023  140.7835  162.1982 C.ar    1  UNL1        0.0071
     23 C         137.5107  140.9107  163.5707 C.ar    1  UNL1       -0.0017
     24 C         137.7149  142.1686  164.3618 C.ar    1  UNL1        0.0060
     25 C         138.5108  143.2993  163.7804 C.ar    1  UNL1        0.0748
     26 C         139.1024  143.1722  162.4079 C.ar    1  UNL1        0.0234
     27 C         138.8981  141.9143  161.6167 C.ar    1  UNL1       -0.0235
     28 C         139.4897  141.7871  160.2442 C.3     1  UNL1        0.0306
     29 C         139.8343  144.4445  162.0989 C.3     1  UNL1        0.2352
     30 O         139.6951  145.3579  163.2805 O.3     1  UNL1       -0.4404
     31 C         138.8771  144.6502  164.3198 C.2     1  UNL1        0.3413
     32 O         138.4929  145.1974  165.6625 O.2     1  UNL1       -0.2449
@<TRIPOS>BOND
     1    15    16    1
     2    16     9    1
     3     9    10   ar
     4    10    11   ar
     5    11     8    1
     6     8     7    1
     7     7     1    1
     8     1     2    1
     9     2     3    1
    10     3     4    1
    11     4    19    1
    12    19    20    1
    13    20    21    1
    14    20    22    1
    15    22    23   ar
    16    23    24   ar
    17    24    25   ar
    18    25    26   ar
    19    26    27   ar
    20    27    28    1
    21    26    29    1
    22    29    30    1
    23    30    31    1
    24    31    32    2
    25     4     5    1
    26     5     6    1
    27    11    12   ar
    28    12    13   ar
    29    13    14   ar
    30    14    17    1
    31    17    18    3
    32    14     9   ar
    33     6     1    1
    34    27    22   ar
    35    31    25    1
@<TRIPOS>MOLECULE
*****
 32 35 0 0 0
SMALL
GASTEIGER

@<TRIPOS>ATOM
      1 N         139.5263  142.2811  160.3637 N.3     1  UNL1       -0.2700
      2 C         138.2628  142.2329  161.1708 C.3     1  UNL1        0.0897
      3 C         137.9122  140.9950  161.9420 C.3     1  UNL1        0.0897
      4 N         138.8252  139.8054  161.9061 N.3     1  UNL1       -0.2677
      5 C         140.0887  139.8536  161.0991 C.3     1  UNL1        0.0897
      6 C         140.4392  141.0914  160.3280 C.3     1  UNL1        0.0897
      7 C         139.8769  143.5189  159.5925 C.3     1  UNL1        0.0769
      8 C         140.3357  144.7495  160.3173 C.3     1  UNL1        0.0438
      9 C         143.5629  143.7764  162.4120 C.ar    1  UNL1        0.1479
     10 C         142.5959  143.8946  161.2715 C.ar    1  UNL1        0.0334
     11 C         141.3027  144.6314  161.4579 C.ar    1  UNL1       -0.0177
     12 C         140.9765  145.2501  162.7849 C.ar    1  UNL1       -0.0033
     13 C         141.9435  145.1319  163.9254 C.ar    1  UNL1        0.0130
     14 C         143.2367  144.3951  163.7390 C.ar    1  UNL1        0.1023
     15 C         144.9050  141.5519  162.4109 C.3     1  UNL1        0.2525
     16 O         144.8561  143.0396  162.2257 O.3     1  UNL1       -0.4708
     17 C         144.2037  144.2770  164.8797 C.1     1  UNL1        0.1035
     18 N         145.1708  144.1589  166.0202 N.1     1  UNL1       -0.1907
     19 C         138.4746  138.5675  162.6774 C.3     1  UNL1        0.1125
     20 C         139.4038  138.0566  163.7383 C.3     1  UNL1        0.1988
     21 F         140.3896  136.9735  163.4138 F       1  UNL1       -0.2309
     22 C         139.3471  138.6287  165.1239 C.ar    1  UNL1        0.0071
     23 C         138.1364  138.4024  165.9798 C.ar    1  UNL1       -0.0017
     24 C         138.0798  138.9745  167.3652 C.ar    1  UNL1        0.0060
     25 C         139.2339  139.7729  167.8947 C.ar    1  UNL1        0.0748
     26 C         140.4448  139.9992  167.0388 C.ar    1  UNL1        0.0234
     27 C         140.5014  139.4271  165.6533 C.ar    1  UNL1       -0.0235
     28 C         141.7123  139.6534  164.7973 C.3     1  UNL1        0.0306
     29 C         141.4217  140.8217  167.8257 C.3     1  UNL1        0.2352
     30 O         140.8145  141.1037  169.1680 O.3     1  UNL1       -0.4404
     31 C         139.4625  140.4555  169.2107 C.2     1  UNL1        0.3413
     32 O         138.5068  140.4848  170.3664 O.2     1  UNL1       -0.2449
@<TRIPOS>BOND
     1    15    16    1
     2    16     9    1
     3     9    10   ar
     4    10    11   ar
     5    11     8    1
     6     8     7    1
     7     7     1    1
     8     1     2    1
     9     2     3    1
    10     3     4    1
    11     4    19    1
    12    19    20    1
    13    20    21    1
    14    20    22    1
    15    22    23   ar
    16    23    24   ar
    17    24    25   ar
    18    25    26   ar
    19    26    27   ar
    20    27    28    1
    21    26    29    1
    22    29    30    1
    23    30    31    1
    24    31    32    2
    25     4     5    1
    26     5     6    1
    27    11    12   ar
    28    12    13   ar
    29    13    14   ar
    30    14    17    1
    31    17    18    3
    32    14     9   ar
    33     6     1    1
    34    27    22   ar
    35    31    25    1
