@<TRIPOS>MOLECULE
*****
 24 26 0 0 0
SMALL
GASTEIGER

@<TRIPOS>ATOM
      1 C         140.3168  141.5162  169.7117 C.ar    1  UNL1        0.3976
      2 C         140.5303  141.7465  168.2450 C.ar    1  UNL1        0.1780
      3 N         139.6997  140.7489  167.4933 N.ar    1  UNL1       -0.2712
      4 C         138.9729  139.9020  168.4955 C.ar    1  UNL1        0.3060
      5 N         139.3542  140.3762  169.8665 N.ar    1  UNL1       -0.1275
      6 O         138.0577  138.8085  168.0302 O.3     1  UNL1       -0.4437
      7 C         137.8693  138.5618  166.5627 C.3     1  UNL1        0.2538
      8 C         138.5962  139.4088  165.5605 C.3     1  UNL1        0.2319
      9 C         139.5114  140.5023  166.0258 C.3     1  UNL1        0.1580
     10 O         142.0374  143.2831  170.5285 O.2     1  UNL1        0.0432
     11 N         140.9539  142.2899  170.8277 N.pl3   1  UNL1        0.1030
     12 O         140.5075  142.0705  172.2428 O.co2   1  UNL1       -0.5746
     13 O         138.4078  139.1621  164.0929 O.3     1  UNL1       -0.4733
     14 C         138.5541  140.2923  163.1176 C.ar    1  UNL1        0.1388
     15 C         139.6705  140.2788  162.1160 C.ar    1  UNL1        0.0400
     16 C         139.8168  141.4090  161.1406 C.ar    1  UNL1        0.0403
     17 C         138.8466  142.5527  161.1669 C.ar    1  UNL1        0.1470
     18 C         137.7301  142.5661  162.1686 C.ar    1  UNL1        0.0403
     19 C         137.5838  141.4360  163.1439 C.ar    1  UNL1        0.0400
     20 O         138.9929  143.6828  160.1916 O.3     1  UNL1       -0.4045
     21 C         140.2021  144.5687  160.2460 C.3     1  UNL1        0.5753
     22 F         141.4114  145.4546  160.3004 F       1  UNL1       -0.1328
     23 F         139.6415  145.2598  161.4535 F       1  UNL1       -0.1328
     24 F         140.7627  143.8776  159.0385 F       1  UNL1       -0.1328
@<TRIPOS>UNITY_ATOM_ATTR
11 1
charge 1
12 1
charge -1
@<TRIPOS>BOND
     1    10    11    2
     2    11    12    1
     3    11     1    1
     4     1     2   ar
     5     2     3   ar
     6     3     4   ar
     7     4     5   ar
     8     4     6    1
     9     6     7    1
    10     7     8    1
    11     8    13    1
    12    13    14    1
    13    14    15   ar
    14    15    16   ar
    15    16    17   ar
    16    17    20    1
    17    20    21    1
    18    21    22    1
    19    21    23    1
    20    21    24    1
    21    17    18   ar
    22    18    19   ar
    23     8     9    1
    24     5     1   ar
    25    19    14   ar
    26     9     3    1
@<TRIPOS>MOLECULE
*****
 24 26 0 0 0
SMALL
GASTEIGER

@<TRIPOS>ATOM
      1 C         140.2763  141.5013  169.7099 C.ar    1  UNL1        0.3976
      2 C         140.4490  141.7180  168.2358 C.ar    1  UNL1        0.1780
      3 N         139.5946  140.7165  167.5167 N.ar    1  UNL1       -0.2712
      4 C         138.8938  139.8808  168.5465 C.ar    1  UNL1        0.3060
      5 N         139.3152  140.3658  169.9020 N.ar    1  UNL1       -0.1275
      6 O         137.9626  138.7861  168.1170 O.3     1  UNL1       -0.4437
      7 C         137.7322  138.5272  166.6576 C.3     1  UNL1        0.2538
      8 C         138.4330  139.3629  165.6278 C.3     1  UNL1        0.2319
      9 C         139.3642  140.4575  166.0574 C.3     1  UNL1        0.1580
     10 O         142.0756  143.2142  170.4706 O.2     1  UNL1        0.0432
     11 N         140.9470  142.2828  170.8005 N.pl3   1  UNL1        0.1030
     12 O         140.4892  142.1329  172.2210 O.co2   1  UNL1       -0.5746
     13 O         138.2025  139.1039  164.1684 O.3     1  UNL1       -0.4733
     14 C         139.3570  138.7529  163.2775 C.ar    1  UNL1        0.1388
     15 C         139.6097  139.5461  162.0297 C.ar    1  UNL1        0.0400
     16 C         140.7643  139.1951  161.1387 C.ar    1  UNL1        0.0403
     17 C         141.6662  138.0509  161.4956 C.ar    1  UNL1        0.1470
     18 C         141.4136  137.2577  162.7434 C.ar    1  UNL1        0.0403
     19 C         140.2590  137.6087  163.6343 C.ar    1  UNL1        0.0400
     20 O         142.8208  137.7000  160.6047 O.3     1  UNL1       -0.4045
     21 C         143.3500  138.7098  159.6299 C.3     1  UNL1        0.5753
     22 F         143.8792  139.7197  158.6552 F       1  UNL1       -0.1328
     23 F         144.0929  139.3921  160.7401 F       1  UNL1       -0.1328
     24 F         142.6071  138.0275  158.5197 F       1  UNL1       -0.1328
@<TRIPOS>UNITY_ATOM_ATTR
11 1
charge 1
12 1
charge -1
@<TRIPOS>BOND
     1    10    11    2
     2    11    12    1
     3    11     1    1
     4     1     2   ar
     5     2     3   ar
     6     3     4   ar
     7     4     5   ar
     8     4     6    1
     9     6     7    1
    10     7     8    1
    11     8    13    1
    12    13    14    1
    13    14    15   ar
    14    15    16   ar
    15    16    17   ar
    16    17    20    1
    17    20    21    1
    18    21    22    1
    19    21    23    1
    20    21    24    1
    21    17    18   ar
    22    18    19   ar
    23     8     9    1
    24     5     1   ar
    25    19    14   ar
    26     9     3    1
@<TRIPOS>MOLECULE
*****
 24 26 0 0 0
SMALL
GASTEIGER

@<TRIPOS>ATOM
      1 C         140.0261  141.6569  169.7634 C.ar    1  UNL1        0.3976
      2 C         140.4163  141.5869  168.3167 C.ar    1  UNL1        0.1780
      3 N         139.5911  140.5170  167.6652 N.ar    1  UNL1       -0.2712
      4 C         138.6908  139.9258  168.7092 C.ar    1  UNL1        0.3060
      5 N         138.9597  140.6303  170.0059 N.ar    1  UNL1       -0.1275
      6 O         137.7426  138.8224  168.3442 O.3     1  UNL1       -0.4437
      7 C         137.6946  138.3102  166.9352 C.3     1  UNL1        0.2538
      8 C         138.5949  138.9014  165.8912 C.3     1  UNL1        0.2319
      9 C         139.5432  140.0048  166.2562 C.3     1  UNL1        0.1580
     10 O         140.5826  142.2132  172.2394 O.2     1  UNL1        0.0432
     11 N         140.6012  142.5897  170.7876 N.pl3   1  UNL1        0.1030
     12 O         141.1950  143.8991  170.3600 O.co2   1  UNL1       -0.5746
     13 O         138.5469  138.3891  164.4822 O.3     1  UNL1       -0.4733
     14 C         139.7302  138.5691  163.5780 C.ar    1  UNL1        0.1388
     15 C         140.8256  137.5444  163.5633 C.ar    1  UNL1        0.0400
     16 C         142.0089  137.7244  162.6591 C.ar    1  UNL1        0.0403
     17 C         142.0967  138.9290  161.7697 C.ar    1  UNL1        0.1470
     18 C         141.0013  139.9537  161.7844 C.ar    1  UNL1        0.0403
     19 C         139.8181  139.7737  162.6885 C.ar    1  UNL1        0.0400
     20 O         143.2799  139.1090  160.8655 O.3     1  UNL1       -0.4045
     21 C         143.9891  140.4297  160.8122 C.3     1  UNL1        0.5753
     22 F         144.6983  141.7504  160.7588 F       1  UNL1       -0.1328
     23 F         144.7001  140.0995  162.0910 F       1  UNL1       -0.1328
     24 F         143.2780  140.7598  159.5333 F       1  UNL1       -0.1328
@<TRIPOS>UNITY_ATOM_ATTR
11 1
charge 1
12 1
charge -1
@<TRIPOS>BOND
     1    10    11    2
     2    11    12    1
     3    11     1    1
     4     1     2   ar
     5     2     3   ar
     6     3     4   ar
     7     4     5   ar
     8     4     6    1
     9     6     7    1
    10     7     8    1
    11     8    13    1
    12    13    14    1
    13    14    15   ar
    14    15    16   ar
    15    16    17   ar
    16    17    20    1
    17    20    21    1
    18    21    22    1
    19    21    23    1
    20    21    24    1
    21    17    18   ar
    22    18    19   ar
    23     8     9    1
    24     5     1   ar
    25    19    14   ar
    26     9     3    1
@<TRIPOS>MOLECULE
*****
 24 26 0 0 0
SMALL
GASTEIGER

@<TRIPOS>ATOM
      1 C         142.5635  142.5105  170.1990 C.ar    1  UNL1        0.3976
      2 C         142.2523  141.8566  168.8854 C.ar    1  UNL1        0.1780
      3 N         140.9466  141.1319  169.0260 N.ar    1  UNL1       -0.2712
      4 C         140.4507  141.3378  170.4266 C.ar    1  UNL1        0.3060
      5 N         141.4500  142.1898  171.1515 N.ar    1  UNL1       -0.1275
      6 O         139.1534  140.7229  170.8610 O.3     1  UNL1       -0.4437
      7 C         138.3519  139.9021  169.8947 C.3     1  UNL1        0.2538
      8 C         138.8477  139.6961  168.4941 C.3     1  UNL1        0.2319
      9 C         140.1451  140.3110  168.0598 C.3     1  UNL1        0.1580
     10 O         143.6532  144.5501  171.3833 O.2     1  UNL1        0.0432
     11 N         143.7753  143.3394  170.5061 N.pl3   1  UNL1        0.1030
     12 O         145.1092  142.9578  169.9361 O.co2   1  UNL1       -0.5746
     13 O         138.0461  138.8752  167.5278 O.3     1  UNL1       -0.4733
     14 C         138.3362  138.9515  166.0581 C.ar    1  UNL1        0.1388
     15 C         138.1066  140.2334  165.3138 C.ar    1  UNL1        0.0400
     16 C         138.3967  140.3096  163.8440 C.ar    1  UNL1        0.0403
     17 C         138.9165  139.1039  163.1187 C.ar    1  UNL1        0.1470
     18 C         139.1461  137.8220  163.8630 C.ar    1  UNL1        0.0403
     19 C         138.8560  137.7458  165.3326 C.ar    1  UNL1        0.0400
     20 O         139.2066  139.1801  161.6490 O.3     1  UNL1       -0.4045
     21 C         138.1097  139.5225  160.6848 C.3     1  UNL1        0.5753
     22 F         137.0129  139.8649  159.7206 F       1  UNL1       -0.1328
     23 F         137.2033  138.5417  161.3677 F       1  UNL1       -0.1328
     24 F         139.0162  140.5033  160.0019 F       1  UNL1       -0.1328
@<TRIPOS>UNITY_ATOM_ATTR
11 1
charge 1
12 1
charge -1
@<TRIPOS>BOND
     1    10    11    2
     2    11    12    1
     3    11     1    1
     4     1     2   ar
     5     2     3   ar
     6     3     4   ar
     7     4     5   ar
     8     4     6    1
     9     6     7    1
    10     7     8    1
    11     8    13    1
    12    13    14    1
    13    14    15   ar
    14    15    16   ar
    15    16    17   ar
    16    17    20    1
    17    20    21    1
    18    21    22    1
    19    21    23    1
    20    21    24    1
    21    17    18   ar
    22    18    19   ar
    23     8     9    1
    24     5     1   ar
    25    19    14   ar
    26     9     3    1
@<TRIPOS>MOLECULE
*****
 24 26 0 0 0
SMALL
GASTEIGER

@<TRIPOS>ATOM
      1 C         141.0881  143.9530  159.4305 C.ar    1  UNL1        0.3976
      2 C         141.3868  142.7815  160.3183 C.ar    1  UNL1        0.1780
      3 N         140.2836  142.6724  161.3288 N.ar    1  UNL1       -0.2712
      4 C         139.3030  143.7765  161.0654 C.ar    1  UNL1        0.3060
      5 N         139.8002  144.5679  159.8922 N.ar    1  UNL1       -0.1275
      6 O         138.0840  143.9185  161.9279 O.3     1  UNL1       -0.4437
      7 C         137.8457  142.9565  163.0538 C.3     1  UNL1        0.2538
      8 C         138.8264  141.8524  163.3172 C.3     1  UNL1        0.2319
      9 C         140.0453  141.7104  162.4547 C.3     1  UNL1        0.1580
     10 O         142.3104  143.4733  157.1887 O.2     1  UNL1        0.0432
     11 N         141.9294  144.4264  158.2824 N.pl3   1  UNL1        0.1030
     12 O         142.3898  145.8530  158.2282 O.co2   1  UNL1       -0.5746
     13 O         138.5880  140.8903  164.4431 O.3     1  UNL1       -0.4733
     14 C         139.2813  141.0885  165.7584 C.ar    1  UNL1        0.1388
     15 C         139.2597  139.9991  166.7892 C.ar    1  UNL1        0.0400
     16 C         139.9531  140.1973  168.1046 C.ar    1  UNL1        0.0403
     17 C         140.6680  141.4849  168.3890 C.ar    1  UNL1        0.1470
     18 C         140.6896  142.5743  167.3582 C.ar    1  UNL1        0.0403
     19 C         139.9962  142.3762  166.0429 C.ar    1  UNL1        0.0400
     20 O         141.3613  141.6830  169.7043 O.3     1  UNL1       -0.4045
     21 C         142.7712  142.1940  169.7395 C.3     1  UNL1        0.5753
     22 F         144.1810  142.7049  169.7747 F       1  UNL1       -0.1328
     23 F         142.2765  143.5258  170.2208 F       1  UNL1       -0.1328
     24 F         143.2658  140.8622  169.2581 F       1  UNL1       -0.1328
@<TRIPOS>UNITY_ATOM_ATTR
11 1
charge 1
12 1
charge -1
@<TRIPOS>BOND
     1    10    11    2
     2    11    12    1
     3    11     1    1
     4     1     2   ar
     5     2     3   ar
     6     3     4   ar
     7     4     5   ar
     8     4     6    1
     9     6     7    1
    10     7     8    1
    11     8    13    1
    12    13    14    1
    13    14    15   ar
    14    15    16   ar
    15    16    17   ar
    16    17    20    1
    17    20    21    1
    18    21    22    1
    19    21    23    1
    20    21    24    1
    21    17    18   ar
    22    18    19   ar
    23     8     9    1
    24     5     1   ar
    25    19    14   ar
    26     9     3    1
@<TRIPOS>MOLECULE
*****
 24 26 0 0 0
SMALL
GASTEIGER

@<TRIPOS>ATOM
      1 C         138.5736  139.9167  158.8373 C.ar    1  UNL1        0.3976
      2 C         137.8936  140.3916  160.0871 C.ar    1  UNL1        0.1780
      3 N         138.3942  139.5611  161.2315 N.ar    1  UNL1       -0.2712
      4 C         139.3836  138.5728  160.6889 C.ar    1  UNL1        0.3060
      5 N         139.4945  138.7926  159.2093 N.ar    1  UNL1       -0.1275
      6 O         140.0558  137.6005  161.6123 O.3     1  UNL1       -0.4437
      7 C         139.7385  137.6164  163.0783 C.3     1  UNL1        0.2538
      8 C         138.7490  138.6047  163.6208 C.3     1  UNL1        0.2319
      9 C         138.0769  139.5770  162.6974 C.3     1  UNL1        0.1580
     10 O         139.4770  141.2158  156.7766 O.2     1  UNL1        0.0432
     11 N         138.3688  140.4689  157.4578 N.pl3   1  UNL1        0.1030
     12 O         137.0557  140.2743  156.7593 O.co2   1  UNL1       -0.5746
     13 O         138.4318  138.6205  165.0868 O.3     1  UNL1       -0.4733
     14 C         139.1932  139.5257  166.0092 C.ar    1  UNL1        0.1388
     15 C         140.2479  140.4404  165.4606 C.ar    1  UNL1        0.0400
     16 C         141.0094  141.3456  166.3831 C.ar    1  UNL1        0.0403
     17 C         140.7161  141.3361  167.8541 C.ar    1  UNL1        0.1470
     18 C         139.6614  140.4214  168.4027 C.ar    1  UNL1        0.0403
     19 C         138.9000  139.5162  167.4803 C.ar    1  UNL1        0.0400
     20 O         141.4775  142.2412  168.7764 O.3     1  UNL1       -0.4045
     21 C         140.7541  143.3012  169.5532 C.3     1  UNL1        0.5753
     22 F         140.0308  144.3611  170.3299 F       1  UNL1       -0.1328
     23 F         141.4532  142.8608  170.8051 F       1  UNL1       -0.1328
     24 F         140.0551  143.7415  168.3012 F       1  UNL1       -0.1328
@<TRIPOS>UNITY_ATOM_ATTR
11 1
charge 1
12 1
charge -1
@<TRIPOS>BOND
     1    10    11    2
     2    11    12    1
     3    11     1    1
     4     1     2   ar
     5     2     3   ar
     6     3     4   ar
     7     4     5   ar
     8     4     6    1
     9     6     7    1
    10     7     8    1
    11     8    13    1
    12    13    14    1
    13    14    15   ar
    14    15    16   ar
    15    16    17   ar
    16    17    20    1
    17    20    21    1
    18    21    22    1
    19    21    23    1
    20    21    24    1
    21    17    18   ar
    22    18    19   ar
    23     8     9    1
    24     5     1   ar
    25    19    14   ar
    26     9     3    1
@<TRIPOS>MOLECULE
*****
 24 26 0 0 0
SMALL
GASTEIGER

@<TRIPOS>ATOM
      1 C         142.3852  143.9097  158.7805 C.ar    1  UNL1        0.3976
      2 C         141.9104  143.0593  159.9213 C.ar    1  UNL1        0.1780
      3 N         141.0367  143.9061  160.7985 N.ar    1  UNL1       -0.2712
      4 C         140.9715  145.2799  160.1999 C.ar    1  UNL1        0.3060
      5 N         141.8050  145.2822  158.9528 N.ar    1  UNL1       -0.1275
      6 O         140.1617  146.3514  160.8678 O.3     1  UNL1       -0.4437
      7 C         139.4171  146.0490  162.1343 C.3     1  UNL1        0.2538
      8 C         139.4822  144.6752  162.7329 C.3     1  UNL1        0.2319
      9 C         140.2920  143.6037  162.0650 C.3     1  UNL1        0.1580
     10 O         142.9077  143.7543  156.2403 O.2     1  UNL1        0.0432
     11 N         143.2827  143.4657  157.6637 N.pl3   1  UNL1        0.1030
     12 O         144.5552  142.7330  157.9702 O.co2   1  UNL1       -0.5746
     13 O         138.7375  144.3728  163.9994 O.3     1  UNL1       -0.4733
     14 C         138.8425  143.0136  164.6250 C.ar    1  UNL1        0.1388
     15 C         139.8398  142.7659  165.7177 C.ar    1  UNL1        0.0400
     16 C         139.9449  141.4065  166.3432 C.ar    1  UNL1        0.0403
     17 C         139.0526  140.2950  165.8761 C.ar    1  UNL1        0.1470
     18 C         138.0553  140.5427  164.7833 C.ar    1  UNL1        0.0403
     19 C         137.9503  141.9019  164.1578 C.ar    1  UNL1        0.0400
     20 O         139.1577  138.9357  166.5016 O.3     1  UNL1       -0.4045
     21 C         137.9185  138.2171  166.9467 C.3     1  UNL1        0.5753
     22 F         136.6794  137.4986  167.3919 F       1  UNL1       -0.1328
     23 F         137.7142  139.2383  168.0263 F       1  UNL1       -0.1328
     24 F         138.1228  137.1960  165.8671 F       1  UNL1       -0.1328
@<TRIPOS>UNITY_ATOM_ATTR
11 1
charge 1
12 1
charge -1
@<TRIPOS>BOND
     1    10    11    2
     2    11    12    1
     3    11     1    1
     4     1     2   ar
     5     2     3   ar
     6     3     4   ar
     7     4     5   ar
     8     4     6    1
     9     6     7    1
    10     7     8    1
    11     8    13    1
    12    13    14    1
    13    14    15   ar
    14    15    16   ar
    15    16    17   ar
    16    17    20    1
    17    20    21    1
    18    21    22    1
    19    21    23    1
    20    21    24    1
    21    17    18   ar
    22    18    19   ar
    23     8     9    1
    24     5     1   ar
    25    19    14   ar
    26     9     3    1
@<TRIPOS>MOLECULE
*****
 24 26 0 0 0
SMALL
GASTEIGER

@<TRIPOS>ATOM
      1 C         141.2541  141.6403  169.5741 C.ar    1  UNL1        0.3976
      2 C         141.2791  141.8294  168.0863 C.ar    1  UNL1        0.1780
      3 N         142.0421  140.6857  167.4864 N.ar    1  UNL1       -0.2712
      4 C         142.4886  139.7897  168.6035 C.ar    1  UNL1        0.3060
      5 N         142.0015  140.3797  169.8938 N.ar    1  UNL1       -0.1275
      6 O         143.2809  138.5524  168.3015 O.3     1  UNL1       -0.4437
      7 C         143.6268  138.2111  166.8824 C.3     1  UNL1        0.2538
      8 C         143.1803  139.1071  165.7653 C.3     1  UNL1        0.2319
      9 C         142.3880  140.3444  166.0674 C.3     1  UNL1        0.1580
     10 O         139.9717  143.8356  170.1089 O.2     1  UNL1        0.0432
     11 N         140.5969  142.5517  170.5678 N.pl3   1  UNL1        0.1030
     12 O         140.5649  142.1792  172.0205 O.co2   1  UNL1       -0.5746
     13 O         143.5262  138.7657  164.3462 O.3     1  UNL1       -0.4733
     14 C         142.4410  138.6464  163.3176 C.ar    1  UNL1        0.1388
     15 C         141.2623  137.7540  163.5711 C.ar    1  UNL1        0.0400
     16 C         140.1770  137.6347  162.5424 C.ar    1  UNL1        0.0403
     17 C         140.2705  138.4078  161.2604 C.ar    1  UNL1        0.1470
     18 C         141.4492  139.3002  161.0070 C.ar    1  UNL1        0.0403
     19 C         142.5344  139.4195  162.0355 C.ar    1  UNL1        0.0400
     20 O         139.1853  138.2884  160.2319 O.3     1  UNL1       -0.4045
     21 C         138.4882  139.5185  159.7309 C.3     1  UNL1        0.5753
     22 F         137.7911  140.7486  159.2299 F       1  UNL1       -0.1328
     23 F         137.8488  139.7036  161.0751 F       1  UNL1       -0.1328
     24 F         139.1275  139.3334  158.3867 F       1  UNL1       -0.1328
@<TRIPOS>UNITY_ATOM_ATTR
11 1
charge 1
12 1
charge -1
@<TRIPOS>BOND
     1    10    11    2
     2    11    12    1
     3    11     1    1
     4     1     2   ar
     5     2     3   ar
     6     3     4   ar
     7     4     5   ar
     8     4     6    1
     9     6     7    1
    10     7     8    1
    11     8    13    1
    12    13    14    1
    13    14    15   ar
    14    15    16   ar
    15    16    17   ar
    16    17    20    1
    17    20    21    1
    18    21    22    1
    19    21    23    1
    20    21    24    1
    21    17    18   ar
    22    18    19   ar
    23     8     9    1
    24     5     1   ar
    25    19    14   ar
    26     9     3    1
@<TRIPOS>MOLECULE
*****
 24 26 0 0 0
SMALL
GASTEIGER

@<TRIPOS>ATOM
      1 C         140.1431  141.9245  169.4875 C.ar    1  UNL1        0.3976
      2 C         139.5493  140.6056  169.0902 C.ar    1  UNL1        0.1780
      3 N         139.7288  140.4435  167.6098 N.ar    1  UNL1       -0.2712
      4 C         140.4336  141.6623  167.0922 C.ar    1  UNL1        0.3060
      5 N         140.6896  142.5775  168.2527 N.ar    1  UNL1       -0.1275
      6 O         140.7511  141.7811  165.6310 O.3     1  UNL1       -0.4437
      7 C         140.3639  140.6812  164.6875 C.3     1  UNL1        0.2538
      8 C         139.6592  139.4625  165.2051 C.3     1  UNL1        0.2319
      9 C         139.3417  139.3436  166.6663 C.3     1  UNL1        0.1580
     10 O         141.3316  142.1672  171.7850 O.2     1  UNL1        0.0432
     11 N         140.1833  142.4909  170.8759 N.pl3   1  UNL1        0.1030
     12 O         139.0752  143.3810  171.3551 O.co2   1  UNL1       -0.5746
     13 O         139.2720  138.3625  164.2615 O.3     1  UNL1       -0.4733
     14 C         139.1004  138.6538  162.8002 C.ar    1  UNL1        0.1388
     15 C         140.1607  138.2396  161.8233 C.ar    1  UNL1        0.0400
     16 C         139.9890  138.5309  160.3618 C.ar    1  UNL1        0.0403
     17 C         138.7571  139.2364  159.8773 C.ar    1  UNL1        0.1470
     18 C         137.6969  139.6505  160.8542 C.ar    1  UNL1        0.0403
     19 C         137.8685  139.3593  162.3156 C.ar    1  UNL1        0.0400
     20 O         138.5855  139.5277  158.4160 O.3     1  UNL1       -0.4045
     21 C         138.5148  140.9475  157.9374 C.3     1  UNL1        0.5753
     22 F         138.4441  142.3674  157.4589 F       1  UNL1       -0.1328
     23 F         139.9965  141.0850  158.1265 F       1  UNL1       -0.1328
     24 F         137.0331  140.8100  157.7484 F       1  UNL1       -0.1328
@<TRIPOS>UNITY_ATOM_ATTR
11 1
charge 1
12 1
charge -1
@<TRIPOS>BOND
     1    10    11    2
     2    11    12    1
     3    11     1    1
     4     1     2   ar
     5     2     3   ar
     6     3     4   ar
     7     4     5   ar
     8     4     6    1
     9     6     7    1
    10     7     8    1
    11     8    13    1
    12    13    14    1
    13    14    15   ar
    14    15    16   ar
    15    16    17   ar
    16    17    20    1
    17    20    21    1
    18    21    22    1
    19    21    23    1
    20    21    24    1
    21    17    18   ar
    22    18    19   ar
    23     8     9    1
    24     5     1   ar
    25    19    14   ar
    26     9     3    1
