@<TRIPOS>MOLECULE
*****
 25 27 0 0 0
SMALL
GASTEIGER

@<TRIPOS>ATOM
      1 C         142.3530  138.0821  162.8738 C.3     1  UNL1        0.0992
      2 C         141.2995  138.6437  160.5662 C.3     1  UNL1        0.0902
      3 N         141.1566  138.1366  161.9707 N.3     1  UNL1       -0.2639
      4 C         139.8172  137.6842  162.4720 C.3     1  UNL1        0.1025
      5 C         139.2187  138.3206  163.6914 C.ar    1  UNL1        0.0284
      6 C         138.9493  137.4935  164.9134 C.ar    1  UNL1        0.0001
      7 C         138.3508  138.1298  166.1327 C.ar    1  UNL1       -0.0001
      8 C         138.0216  139.5933  166.1301 C.ar    1  UNL1        0.0031
      9 C         138.2910  140.4204  164.9080 C.ar    1  UNL1        0.0374
     10 C         138.0732  141.8747  164.6124 C.ar    1  UNL1        0.0437
     11 C         138.5371  142.1372  163.2103 C.ar    1  UNL1        0.1796
     12 O         139.0417  140.8451  162.6394 O.2     1  UNL1       -0.4507
     13 C         138.8895  139.7840  163.6887 C.ar    1  UNL1        0.1427
     14 C         142.5165  139.0992  163.9642 C.2     1  UNL1       -0.0088
     15 C         142.4507  138.6749  165.4015 C.2     1  UNL1       -0.0032
     16 C         142.6142  139.6919  166.4919 C.ar    1  UNL1       -0.0003
     17 C         142.6183  139.2579  167.9277 C.ar    1  UNL1       -0.0001
     18 C         142.7818  140.2750  169.0181 C.ar    1  UNL1        0.0039
     19 C         142.9412  141.7259  168.6727 C.ar    1  UNL1        0.0714
     20 C         142.9371  142.1599  167.2368 C.ar    1  UNL1        0.0039
     21 C         142.7736  141.1429  166.1464 C.ar    1  UNL1       -0.0001
     22 C         143.1047  142.7430  169.7631 C.3     1  UNL1        0.4186
     23 F         143.2682  143.7601  170.8534 F       1  UNL1       -0.1659
     24 F         141.7110  143.2371  169.5111 F       1  UNL1       -0.1659
     25 F         144.4984  142.2489  170.0150 F       1  UNL1       -0.1659
@<TRIPOS>BOND
     1     2     3    1
     2     3     1    1
     3     1    14    1
     4    14    15    2
     5    15    16    1
     6    16    17   ar
     7    17    18   ar
     8    18    19   ar
     9    19    22    1
    10    22    23    1
    11    22    24    1
    12    22    25    1
    13    19    20   ar
    14    20    21   ar
    15     3     4    1
    16     4     5    1
    17     5     6   ar
    18     6     7   ar
    19     7     8   ar
    20     8     9   ar
    21     9    10   ar
    22    10    11   ar
    23    11    12   ar
    24    12    13   ar
    25    21    16   ar
    26    13     5   ar
    27    13     9   ar
@<TRIPOS>MOLECULE
*****
 25 27 0 0 0
SMALL
GASTEIGER

@<TRIPOS>ATOM
      1 C         144.6695  140.1687  163.6949 C.3     1  UNL1        0.0992
      2 C         143.7169  139.0404  161.5572 C.3     1  UNL1        0.0902
      3 N         144.1892  140.2685  162.2774 N.3     1  UNL1       -0.2639
      4 C         144.1812  141.5965  161.5800 C.3     1  UNL1        0.1025
      5 C         143.5142  142.7768  162.2220 C.ar    1  UNL1        0.0284
      6 C         144.3321  143.9584  162.6519 C.ar    1  UNL1        0.0001
      7 C         143.6651  145.1386  163.2938 C.ar    1  UNL1       -0.0001
      8 C         142.1801  145.1373  163.5059 C.ar    1  UNL1        0.0031
      9 C         141.3622  143.9557  163.0759 C.ar    1  UNL1        0.0374
     10 C         139.8916  143.6709  163.1547 C.ar    1  UNL1        0.0437
     11 C         139.6498  142.3147  162.5614 C.ar    1  UNL1        0.1796
     12 O         140.9709  141.7612  162.1159 O.2     1  UNL1       -0.4507
     13 C         142.0293  142.7755  162.4340 C.ar    1  UNL1        0.1427
     14 C         143.7387  140.4902  164.8265 C.2     1  UNL1       -0.0088
     15 C         143.7979  141.8356  165.4871 C.2     1  UNL1       -0.0032
     16 C         142.8672  142.1572  166.6186 C.ar    1  UNL1       -0.0003
     17 C         143.3955  142.2570  168.0189 C.ar    1  UNL1       -0.0001
     18 C         142.4647  142.5786  169.1505 C.ar    1  UNL1        0.0039
     19 C         141.0058  142.8003  168.8817 C.ar    1  UNL1        0.0714
     20 C         140.4776  142.7004  167.4814 C.ar    1  UNL1        0.0039
     21 C         141.4083  142.3789  166.3498 C.ar    1  UNL1       -0.0001
     22 C         140.0750  143.1218  170.0132 C.3     1  UNL1        0.4186
     23 F         139.1443  143.4433  171.1447 F       1  UNL1       -0.1659
     24 F         139.5720  141.7088  170.0010 F       1  UNL1       -0.1659
     25 F         140.5780  144.5349  170.0255 F       1  UNL1       -0.1659
@<TRIPOS>BOND
     1     2     3    1
     2     3     1    1
     3     1    14    1
     4    14    15    2
     5    15    16    1
     6    16    17   ar
     7    17    18   ar
     8    18    19   ar
     9    19    22    1
    10    22    23    1
    11    22    24    1
    12    22    25    1
    13    19    20   ar
    14    20    21   ar
    15     3     4    1
    16     4     5    1
    17     5     6   ar
    18     6     7   ar
    19     7     8   ar
    20     8     9   ar
    21     9    10   ar
    22    10    11   ar
    23    11    12   ar
    24    12    13   ar
    25    21    16   ar
    26    13     5   ar
    27    13     9   ar
@<TRIPOS>MOLECULE
*****
 25 27 0 0 0
SMALL
GASTEIGER

@<TRIPOS>ATOM
      1 C         144.3963  139.5080  163.9182 C.3     1  UNL1        0.0992
      2 C         144.1691  139.8846  161.3576 C.3     1  UNL1        0.0902
      3 N         143.7536  139.1657  162.6069 N.3     1  UNL1       -0.2639
      4 C         142.6953  138.1045  162.5447 C.3     1  UNL1        0.1025
      5 C         141.4008  138.2923  163.2789 C.ar    1  UNL1        0.0284
      6 C         140.8860  137.2095  164.1803 C.ar    1  UNL1        0.0001
      7 C         139.5916  137.3972  164.9145 C.ar    1  UNL1       -0.0001
      8 C         138.8118  138.6678  164.7473 C.ar    1  UNL1        0.0031
      9 C         139.3266  139.7505  163.8459 C.ar    1  UNL1        0.0374
     10 C         138.7812  141.1007  163.4860 C.ar    1  UNL1        0.0437
     11 C         139.7385  141.7473  162.5293 C.ar    1  UNL1        0.1796
     12 O         140.8757  140.7969  162.2980 O.2     1  UNL1       -0.4507
     13 C         140.6211  139.5628  163.1116 C.ar    1  UNL1        0.1427
     14 C         143.6445  140.3170  164.9334 C.2     1  UNL1       -0.0088
     15 C         142.9698  139.6341  166.0860 C.2     1  UNL1       -0.0032
     16 C         142.2180  140.4430  167.1012 C.ar    1  UNL1       -0.0003
     17 C         140.8102  140.0721  167.4623 C.ar    1  UNL1       -0.0001
     18 C         140.0584  140.8810  168.4775 C.ar    1  UNL1        0.0039
     19 C         140.7144  142.0607  169.1314 C.ar    1  UNL1        0.0714
     20 C         142.1222  142.4317  168.7703 C.ar    1  UNL1        0.0039
     21 C         142.8740  141.6228  167.7552 C.ar    1  UNL1       -0.0001
     22 C         139.9626  142.8697  170.1466 C.3     1  UNL1        0.4186
     23 F         139.2109  143.6787  171.1618 F       1  UNL1       -0.1659
     24 F         140.9467  143.9899  169.9826 F       1  UNL1       -0.1659
     25 F         138.9786  141.7495  170.3106 F       1  UNL1       -0.1659
@<TRIPOS>BOND
     1     2     3    1
     2     3     1    1
     3     1    14    1
     4    14    15    2
     5    15    16    1
     6    16    17   ar
     7    17    18   ar
     8    18    19   ar
     9    19    22    1
    10    22    23    1
    11    22    24    1
    12    22    25    1
    13    19    20   ar
    14    20    21   ar
    15     3     4    1
    16     4     5    1
    17     5     6   ar
    18     6     7   ar
    19     7     8   ar
    20     8     9   ar
    21     9    10   ar
    22    10    11   ar
    23    11    12   ar
    24    12    13   ar
    25    21    16   ar
    26    13     5   ar
    27    13     9   ar
@<TRIPOS>MOLECULE
*****
 25 27 0 0 0
SMALL
GASTEIGER

@<TRIPOS>ATOM
      1 C         138.0616  139.7763  162.6692 C.3     1  UNL1        0.0992
      2 C         139.5672  140.2397  160.6031 C.3     1  UNL1        0.0902
      3 N         138.5706  140.7170  161.6175 N.3     1  UNL1       -0.2639
      4 C         138.0831  142.1350  161.5803 C.3     1  UNL1        0.1025
      5 C         138.4467  143.0824  162.6849 C.ar    1  UNL1        0.0284
      6 C         137.4458  143.4077  163.7538 C.ar    1  UNL1        0.0001
      7 C         137.8094  144.3550  164.8584 C.ar    1  UNL1       -0.0001
      8 C         139.1739  144.9771  164.8943 C.ar    1  UNL1        0.0031
      9 C         140.1747  144.6519  163.8254 C.ar    1  UNL1        0.0374
     10 C         141.5858  145.1076  163.5995 C.ar    1  UNL1        0.0437
     11 C         142.0943  144.4419  162.3552 C.ar    1  UNL1        0.1796
     12 O         140.9975  143.5747  161.8121 O.2     1  UNL1       -0.4507
     13 C         139.8111  143.7045  162.7207 C.ar    1  UNL1        0.1427
     14 C         138.2640  140.0941  164.1211 C.2     1  UNL1       -0.0088
     15 C         139.6298  140.4533  164.6268 C.2     1  UNL1       -0.0032
     16 C         139.8323  140.7712  166.0787 C.ar    1  UNL1       -0.0003
     17 C         140.4884  142.0589  166.4801 C.ar    1  UNL1       -0.0001
     18 C         140.6909  142.3767  167.9321 C.ar    1  UNL1        0.0039
     19 C         140.2373  141.4068  168.9824 C.ar    1  UNL1        0.0714
     20 C         139.5812  140.1190  168.5810 C.ar    1  UNL1        0.0039
     21 C         139.3787  139.8012  167.1291 C.ar    1  UNL1       -0.0001
     22 C         140.4399  141.7245  170.4344 C.3     1  UNL1        0.4186
     23 F         140.6424  142.0423  171.8863 F       1  UNL1       -0.1659
     24 F         141.7579  141.0090  170.4071 F       1  UNL1       -0.1659
     25 F         139.1218  142.4400  170.4617 F       1  UNL1       -0.1659
@<TRIPOS>BOND
     1     2     3    1
     2     3     1    1
     3     1    14    1
     4    14    15    2
     5    15    16    1
     6    16    17   ar
     7    17    18   ar
     8    18    19   ar
     9    19    22    1
    10    22    23    1
    11    22    24    1
    12    22    25    1
    13    19    20   ar
    14    20    21   ar
    15     3     4    1
    16     4     5    1
    17     5     6   ar
    18     6     7   ar
    19     7     8   ar
    20     8     9   ar
    21     9    10   ar
    22    10    11   ar
    23    11    12   ar
    24    12    13   ar
    25    21    16   ar
    26    13     5   ar
    27    13     9   ar
@<TRIPOS>MOLECULE
*****
 25 27 0 0 0
SMALL
GASTEIGER

@<TRIPOS>ATOM
      1 C         139.1825  140.0857  161.2005 C.3     1  UNL1        0.0992
      2 C         140.4447  141.3181  159.2931 C.3     1  UNL1        0.0902
      3 N         139.4296  141.3283  160.3974 N.3     1  UNL1       -0.2639
      4 C         138.6616  142.5810  160.6985 C.3     1  UNL1        0.1025
      5 C         138.8356  143.2679  162.0206 C.ar    1  UNL1        0.0284
      6 C         137.6707  143.3998  162.9563 C.ar    1  UNL1        0.0001
      7 C         137.8447  144.0867  164.2783 C.ar    1  UNL1       -0.0001
      8 C         139.1836  144.6417  164.6647 C.ar    1  UNL1        0.0031
      9 C         140.3485  144.5098  163.7290 C.ar    1  UNL1        0.0374
     10 C         141.7771  144.9545  163.8360 C.ar    1  UNL1        0.0437
     11 C         142.4860  144.5423  162.5799 C.ar    1  UNL1        0.1796
     12 O         141.4956  143.8430  161.6967 O.2     1  UNL1       -0.4507
     13 C         140.1745  143.8229  162.4069 C.ar    1  UNL1        0.1427
     14 C         139.5199  140.0578  162.6619 C.2     1  UNL1       -0.0088
     15 C         138.4357  140.2234  163.6851 C.2     1  UNL1       -0.0032
     16 C         138.7731  140.1955  165.1464 C.ar    1  UNL1       -0.0003
     17 C         138.1516  139.1635  166.0400 C.ar    1  UNL1       -0.0001
     18 C         138.4890  139.1356  167.5014 C.ar    1  UNL1        0.0039
     19 C         139.4478  140.1398  168.0690 C.ar    1  UNL1        0.0714
     20 C         140.0692  141.1719  167.1754 C.ar    1  UNL1        0.0039
     21 C         139.7319  141.1997  165.7141 C.ar    1  UNL1       -0.0001
     22 C         139.7852  140.1120  169.5304 C.3     1  UNL1        0.4186
     23 F         140.1225  140.0842  170.9917 F       1  UNL1       -0.1659
     24 F         138.3434  140.3516  169.8678 F       1  UNL1       -0.1659
     25 F         141.2270  139.8724  169.1930 F       1  UNL1       -0.1659
@<TRIPOS>BOND
     1     2     3    1
     2     3     1    1
     3     1    14    1
     4    14    15    2
     5    15    16    1
     6    16    17   ar
     7    17    18   ar
     8    18    19   ar
     9    19    22    1
    10    22    23    1
    11    22    24    1
    12    22    25    1
    13    19    20   ar
    14    20    21   ar
    15     3     4    1
    16     4     5    1
    17     5     6   ar
    18     6     7   ar
    19     7     8   ar
    20     8     9   ar
    21     9    10   ar
    22    10    11   ar
    23    11    12   ar
    24    12    13   ar
    25    21    16   ar
    26    13     5   ar
    27    13     9   ar
@<TRIPOS>MOLECULE
*****
 25 27 0 0 0
SMALL
GASTEIGER

@<TRIPOS>ATOM
      1 C         138.5603  139.0183  162.4623 C.3     1  UNL1        0.0992
      2 C         139.6905  140.3055  160.5089 C.3     1  UNL1        0.0902
      3 N         138.6697  140.2452  161.6063 N.3     1  UNL1       -0.2639
      4 C         137.7583  141.4118  161.8478 C.3     1  UNL1        0.1025
      5 C         138.2096  142.5491  162.7154 C.ar    1  UNL1        0.0284
      6 C         137.9248  142.5280  164.1879 C.ar    1  UNL1        0.0001
      7 C         138.3761  143.6653  165.0555 C.ar    1  UNL1       -0.0001
      8 C         139.1122  144.8239  164.4506 C.ar    1  UNL1        0.0031
      9 C         139.3970  144.8451  162.9780 C.ar    1  UNL1        0.0374
     10 C         140.0970  145.8443  162.1054 C.ar    1  UNL1        0.0437
     11 C         140.0783  145.3245  160.6985 C.ar    1  UNL1        0.1796
     12 O         139.3667  144.0040  160.7016 O.2     1  UNL1       -0.4507
     13 C         138.9457  143.7077  162.1104 C.ar    1  UNL1        0.1427
     14 C         139.1073  139.0271  163.8591 C.2     1  UNL1       -0.0088
     15 C         140.4219  139.6902  164.1454 C.2     1  UNL1       -0.0032
     16 C         140.9689  139.6991  165.5421 C.ar    1  UNL1       -0.0003
     17 C         142.3252  139.1219  165.8200 C.ar    1  UNL1       -0.0001
     18 C         142.8722  139.1308  167.2168 C.ar    1  UNL1        0.0039
     19 C         142.0629  139.7168  168.3355 C.ar    1  UNL1        0.0714
     20 C         140.7065  140.2939  168.0575 C.ar    1  UNL1        0.0039
     21 C         140.1596  140.2851  166.6609 C.ar    1  UNL1       -0.0001
     22 C         142.6098  139.7257  169.7322 C.3     1  UNL1        0.4186
     23 F         143.1568  139.7347  171.1289 F       1  UNL1       -0.1659
     24 F         142.4359  141.2144  169.7908 F       1  UNL1       -0.1659
     25 F         142.7838  138.2370  169.6736 F       1  UNL1       -0.1659
@<TRIPOS>BOND
     1     2     3    1
     2     3     1    1
     3     1    14    1
     4    14    15    2
     5    15    16    1
     6    16    17   ar
     7    17    18   ar
     8    18    19   ar
     9    19    22    1
    10    22    23    1
    11    22    24    1
    12    22    25    1
    13    19    20   ar
    14    20    21   ar
    15     3     4    1
    16     4     5    1
    17     5     6   ar
    18     6     7   ar
    19     7     8   ar
    20     8     9   ar
    21     9    10   ar
    22    10    11   ar
    23    11    12   ar
    24    12    13   ar
    25    21    16   ar
    26    13     5   ar
    27    13     9   ar
@<TRIPOS>MOLECULE
*****
 25 27 0 0 0
SMALL
GASTEIGER

@<TRIPOS>ATOM
      1 C         143.6218  144.7306  162.9041 C.3     1  UNL1        0.0992
      2 C         143.4052  143.1955  160.8192 C.3     1  UNL1        0.0902
      3 N         142.8386  144.2560  161.7161 N.3     1  UNL1       -0.2639
      4 C         141.4888  144.8418  161.4249 C.3     1  UNL1        0.1025
      5 C         140.2485  144.0518  161.7212 C.ar    1  UNL1        0.0284
      6 C         139.7213  143.0766  160.7109 C.ar    1  UNL1        0.0001
      7 C         138.4811  142.2866  161.0072 C.ar    1  UNL1       -0.0001
      8 C         137.7681  142.4719  162.3139 C.ar    1  UNL1        0.0031
      9 C         138.2954  143.4471  163.3242 C.ar    1  UNL1        0.0374
     10 C         137.8102  143.8402  164.6880 C.ar    1  UNL1        0.0437
     11 C         138.7505  144.8731  165.2346 C.ar    1  UNL1        0.1796
     12 O         139.8169  145.1184  164.2086 O.2     1  UNL1       -0.4507
     13 C         139.5356  144.2371  163.0279 C.ar    1  UNL1        0.1427
     14 C         143.2131  144.3154  164.2863 C.2     1  UNL1       -0.0088
     15 C         142.6479  142.9460  164.5216 C.2     1  UNL1       -0.0032
     16 C         142.2392  142.5306  165.9038 C.ar    1  UNL1       -0.0003
     17 C         140.8153  142.1501  166.1823 C.ar    1  UNL1       -0.0001
     18 C         140.4067  141.7347  167.5646 C.ar    1  UNL1        0.0039
     19 C         141.4219  141.7000  168.6682 C.ar    1  UNL1        0.0714
     20 C         142.8458  142.0806  168.3897 C.ar    1  UNL1        0.0039
     21 C         143.2545  142.4959  167.0075 C.ar    1  UNL1       -0.0001
     22 C         141.0133  141.2846  170.0505 C.3     1  UNL1        0.4186
     23 F         140.6046  140.8693  171.4327 F       1  UNL1       -0.1659
     24 F         139.5951  141.6670  169.7461 F       1  UNL1       -0.1659
     25 F         142.4314  140.9023  170.3549 F       1  UNL1       -0.1659
@<TRIPOS>BOND
     1     2     3    1
     2     3     1    1
     3     1    14    1
     4    14    15    2
     5    15    16    1
     6    16    17   ar
     7    17    18   ar
     8    18    19   ar
     9    19    22    1
    10    22    23    1
    11    22    24    1
    12    22    25    1
    13    19    20   ar
    14    20    21   ar
    15     3     4    1
    16     4     5    1
    17     5     6   ar
    18     6     7   ar
    19     7     8   ar
    20     8     9   ar
    21     9    10   ar
    22    10    11   ar
    23    11    12   ar
    24    12    13   ar
    25    21    16   ar
    26    13     5   ar
    27    13     9   ar
@<TRIPOS>MOLECULE
*****
 25 27 0 0 0
SMALL
GASTEIGER

@<TRIPOS>ATOM
      1 C         143.1537  142.9700  162.7333 C.3     1  UNL1        0.0992
      2 C         142.3892  142.7979  160.2561 C.3     1  UNL1        0.0902
      3 N         142.2531  143.4117  161.6180 N.3     1  UNL1       -0.2639
      4 C         141.2164  144.4674  161.8646 C.3     1  UNL1        0.1025
      5 C         140.0996  144.2102  162.8324 C.ar    1  UNL1        0.0284
      6 C         139.9316  145.0907  164.0351 C.ar    1  UNL1        0.0001
      7 C         138.8148  144.8336  165.0027 C.ar    1  UNL1       -0.0001
      8 C         137.8658  143.6958  164.7678 C.ar    1  UNL1        0.0031
      9 C         138.0338  142.8154  163.5651 C.ar    1  UNL1        0.0374
     10 C         137.2598  141.6277  163.0748 C.ar    1  UNL1        0.0437
     11 C         137.8983  141.1509  161.8040 C.ar    1  UNL1        0.1796
     12 O         139.0669  142.0438  161.5089 O.2     1  UNL1       -0.4507
     13 C         139.1506  143.0725  162.5974 C.ar    1  UNL1        0.1427
     14 C         142.5790  142.2687  163.9283 C.2     1  UNL1       -0.0088
     15 C         142.5748  142.9475  165.2659 C.2     1  UNL1       -0.0032
     16 C         142.0001  142.2463  166.4609 C.ar    1  UNL1       -0.0003
     17 C         142.8421  142.0372  167.6846 C.ar    1  UNL1       -0.0001
     18 C         142.2674  141.3360  168.8796 C.ar    1  UNL1        0.0039
     19 C         140.8508  140.8440  168.8510 C.ar    1  UNL1        0.0714
     20 C         140.0087  141.0530  167.6274 C.ar    1  UNL1        0.0039
     21 C         140.5834  141.7542  166.4323 C.ar    1  UNL1       -0.0001
     22 C         140.2760  140.1427  170.0460 C.3     1  UNL1        0.4186
     23 F         139.7012  139.4416  171.2410 F       1  UNL1       -0.1659
     24 F         139.1139  141.0912  170.0436 F       1  UNL1       -0.1659
     25 F         141.4380  139.1943  170.0485 F       1  UNL1       -0.1659
@<TRIPOS>BOND
     1     2     3    1
     2     3     1    1
     3     1    14    1
     4    14    15    2
     5    15    16    1
     6    16    17   ar
     7    17    18   ar
     8    18    19   ar
     9    19    22    1
    10    22    23    1
    11    22    24    1
    12    22    25    1
    13    19    20   ar
    14    20    21   ar
    15     3     4    1
    16     4     5    1
    17     5     6   ar
    18     6     7   ar
    19     7     8   ar
    20     8     9   ar
    21     9    10   ar
    22    10    11   ar
    23    11    12   ar
    24    12    13   ar
    25    21    16   ar
    26    13     5   ar
    27    13     9   ar
@<TRIPOS>MOLECULE
*****
 25 27 0 0 0
SMALL
GASTEIGER

@<TRIPOS>ATOM
      1 C         137.8278  143.8323  162.8501 C.3     1  UNL1        0.0992
      2 C         138.6913  142.7640  160.6448 C.3     1  UNL1        0.0902
      3 N         138.7780  143.8370  161.6895 N.3     1  UNL1       -0.2639
      4 C         139.8150  144.9145  161.5734 C.3     1  UNL1        0.1025
      5 C         141.1915  144.6936  162.1272 C.ar    1  UNL1        0.0284
      6 C         141.5663  145.2738  163.4586 C.ar    1  UNL1        0.0001
      7 C         142.9427  145.0529  164.0123 C.ar    1  UNL1       -0.0001
      8 C         143.9443  144.2517  163.2346 C.ar    1  UNL1        0.0031
      9 C         143.5695  143.6714  161.9031 C.ar    1  UNL1        0.0374
     10 C         144.3390  142.8446  160.9161 C.ar    1  UNL1        0.0437
     11 C         143.4381  142.5546  159.7524 C.ar    1  UNL1        0.1796
     12 O         142.1119  143.2021  160.0201 O.2     1  UNL1       -0.4507
     13 C         142.1930  143.8924  161.3494 C.ar    1  UNL1        0.1427
     14 C         138.3271  143.5071  164.2268 C.2     1  UNL1       -0.0088
     15 C         139.0803  142.2329  164.4697 C.2     1  UNL1       -0.0032
     16 C         139.5796  141.9077  165.8463 C.ar    1  UNL1       -0.0003
     17 C         139.3740  140.5344  166.4136 C.ar    1  UNL1       -0.0001
     18 C         139.8734  140.2092  167.7902 C.ar    1  UNL1        0.0039
     19 C         140.5781  141.2572  168.5994 C.ar    1  UNL1        0.0714
     20 C         140.7836  142.6305  168.0321 C.ar    1  UNL1        0.0039
     21 C         140.2844  142.9557  166.6556 C.ar    1  UNL1       -0.0001
     22 C         141.0774  140.9320  169.9761 C.3     1  UNL1        0.4186
     23 F         141.5767  140.6069  171.3526 F       1  UNL1       -0.1659
     24 F         141.2947  142.3922  170.2421 F       1  UNL1       -0.1659
     25 F         140.8601  139.4719  169.7100 F       1  UNL1       -0.1659
@<TRIPOS>BOND
     1     2     3    1
     2     3     1    1
     3     1    14    1
     4    14    15    2
     5    15    16    1
     6    16    17   ar
     7    17    18   ar
     8    18    19   ar
     9    19    22    1
    10    22    23    1
    11    22    24    1
    12    22    25    1
    13    19    20   ar
    14    20    21   ar
    15     3     4    1
    16     4     5    1
    17     5     6   ar
    18     6     7   ar
    19     7     8   ar
    20     8     9   ar
    21     9    10   ar
    22    10    11   ar
    23    11    12   ar
    24    12    13   ar
    25    21    16   ar
    26    13     5   ar
    27    13     9   ar
