@<TRIPOS>MOLECULE
*****
 26 29 0 0 0
SMALL
GASTEIGER

@<TRIPOS>ATOM
      1 C         142.5762  143.6907  163.5868 C.ar    1  UNL1        0.1348
      2 C         141.6715  143.1878  164.6725 C.ar    1  UNL1        0.0505
      3 C         142.2512  142.7139  165.9723 C.ar    1  UNL1        0.0797
      4 N         143.7356  142.7429  166.1864 N.ar    1  UNL1       -0.2269
      5 C         144.6402  143.2458  165.1007 C.ar    1  UNL1        0.1998
      6 N         144.0606  143.7196  163.8010 N.ar    1  UNL1       -0.2090
      7 C         140.2575  145.5862  158.3878 C.3     1  UNL1        0.0897
      8 N         140.8372  145.1123  159.6875 N.3     1  UNL1       -0.2686
      9 C         140.3065  145.6469  160.9846 C.3     1  UNL1        0.0939
     10 C         140.8861  145.1730  162.2844 C.3     1  UNL1        0.1095
     11 N         141.9965  144.1645  162.2871 N.pl3   1  UNL1       -0.2903
     12 C         142.5273  143.6300  160.9899 C.3     1  UNL1        0.1095
     13 C         141.9476  144.1039  159.6902 C.3     1  UNL1        0.0939
     14 C         141.3466  142.2110  167.0580 C.3     1  UNL1        0.1191
     15 N         141.3583  140.7581  167.4310 N.3     1  UNL1       -0.2628
     16 C         142.3266  140.2559  168.4606 C.3     1  UNL1        0.0902
     17 C         140.4017  139.8074  166.7743 C.3     1  UNL1        0.0981
     18 C         139.0330  139.6019  167.3526 C.3     1  UNL1        0.0224
     19 C         138.0763  138.6513  166.6960 C.3     1  UNL1        0.0065
     20 C         138.4884  137.9062  165.4611 C.3     1  UNL1        0.0277
     21 C         139.8571  138.1117  164.8827 C.ar    1  UNL1       -0.0073
     22 C         140.2691  137.3667  163.6478 C.ar    1  UNL1       -0.0015
     23 C         141.6378  137.5722  163.0695 C.ar    1  UNL1        0.0203
     24 C         142.5944  138.5229  163.7261 C.ar    1  UNL1        0.0985
     25 N         142.1824  139.2679  164.9611 N.ar    1  UNL1       -0.2471
     26 C         140.8137  139.0624  165.5393 C.ar    1  UNL1        0.0695
@<TRIPOS>BOND
     1     7     8    1
     2     8     9    1
     3     9    10    1
     4    10    11    1
     5    11     1    1
     6     1     2   ar
     7     2     3   ar
     8     3    14    1
     9    14    15    1
    10    15    16    1
    11    17    15    1
    12    17    18    1
    13    18    19    1
    14    19    20    1
    15    20    21    1
    16    21    22   ar
    17    22    23   ar
    18    23    24   ar
    19    24    25   ar
    20    25    26   ar
    21     3     4   ar
    22     4     5   ar
    23     5     6   ar
    24    11    12    1
    25    12    13    1
    26    13     8    1
    27     6     1   ar
    28    26    17    1
    29    26    21   ar
@<TRIPOS>MOLECULE
*****
 26 29 0 0 0
SMALL
GASTEIGER

@<TRIPOS>ATOM
      1 C         139.6936  140.3034  167.4331 C.ar    1  UNL1        0.1348
      2 C         139.8256  140.3762  165.9407 C.ar    1  UNL1        0.0505
      3 C         138.9113  139.5697  165.0667 C.ar    1  UNL1        0.0797
      4 N         137.8652  138.6905  165.6851 N.ar    1  UNL1       -0.2269
      5 C         137.7332  138.6177  167.1775 C.ar    1  UNL1        0.1998
      6 N         138.6474  139.4242  168.0515 N.ar    1  UNL1       -0.2090
      7 C         143.3504  143.5292  170.9291 C.3     1  UNL1        0.0897
      8 N         142.4362  142.7228  170.0551 N.3     1  UNL1       -0.2686
      9 C         141.0245  142.4589  170.4880 C.3     1  UNL1        0.0939
     10 C         140.1103  141.6525  169.6140 C.3     1  UNL1        0.1095
     11 N         140.6078  141.1099  168.3071 N.pl3   1  UNL1       -0.2903
     12 C         142.0196  141.3737  167.8742 C.3     1  UNL1        0.1095
     13 C         142.9337  142.1802  168.7481 C.3     1  UNL1        0.0939
     14 C         139.0433  139.6425  163.5743 C.3     1  UNL1        0.1191
     15 N         138.5701  140.8607  162.8380 N.3     1  UNL1       -0.2628
     16 C         137.9094  140.7183  161.4990 C.3     1  UNL1        0.0902
     17 C         138.7577  142.2214  163.4409 C.3     1  UNL1        0.0981
     18 C         137.6405  142.8611  164.2106 C.3     1  UNL1        0.0224
     19 C         137.8280  144.2218  164.8135 C.3     1  UNL1        0.0065
     20 C         139.1328  144.9427  164.6466 C.3     1  UNL1        0.0277
     21 C         140.2501  144.3029  163.8768 C.ar    1  UNL1       -0.0073
     22 C         141.5548  145.0238  163.7099 C.ar    1  UNL1       -0.0015
     23 C         142.6720  144.3841  162.9401 C.ar    1  UNL1        0.0203
     24 C         142.4844  143.0234  162.3373 C.ar    1  UNL1        0.0985
     25 N         141.1797  142.3025  162.5042 N.ar    1  UNL1       -0.2471
     26 C         140.0625  142.9423  163.2739 C.ar    1  UNL1        0.0695
@<TRIPOS>BOND
     1     7     8    1
     2     8     9    1
     3     9    10    1
     4    10    11    1
     5    11     1    1
     6     1     2   ar
     7     2     3   ar
     8     3    14    1
     9    14    15    1
    10    15    16    1
    11    17    15    1
    12    17    18    1
    13    18    19    1
    14    19    20    1
    15    20    21    1
    16    21    22   ar
    17    22    23   ar
    18    23    24   ar
    19    24    25   ar
    20    25    26   ar
    21     3     4   ar
    22     4     5   ar
    23     5     6   ar
    24    11    12    1
    25    12    13    1
    26    13     8    1
    27     6     1   ar
    28    26    17    1
    29    26    21   ar
@<TRIPOS>MOLECULE
*****
 26 29 0 0 0
SMALL
GASTEIGER

@<TRIPOS>ATOM
      1 C         140.5356  139.0715  165.3243 C.ar    1  UNL1        0.1348
      2 C         139.5033  139.8059  164.5211 C.ar    1  UNL1        0.0505
      3 C         139.1969  139.3726  163.1180 C.ar    1  UNL1        0.0797
      4 N         139.9228  138.2050  162.5182 N.ar    1  UNL1       -0.2269
      5 C         140.9550  137.4707  163.3214 C.ar    1  UNL1        0.1998
      6 N         141.2615  137.9038  164.7244 N.ar    1  UNL1       -0.2090
      7 C         141.7613  140.8043  170.9363 C.3     1  UNL1        0.0897
      8 N         141.4549  140.3711  169.5333 N.3     1  UNL1       -0.2686
      9 C         140.0381  140.3723  169.0405 C.3     1  UNL1        0.0939
     10 C         139.7317  139.9391  167.6375 C.3     1  UNL1        0.1095
     11 N         140.8420  139.5047  166.7273 N.pl3   1  UNL1       -0.2903
     12 C         142.2588  139.5035  167.2201 C.3     1  UNL1        0.1095
     13 C         142.5652  139.9367  168.6231 C.3     1  UNL1        0.0939
     14 C         138.1646  140.1070  162.3149 C.3     1  UNL1        0.1191
     15 N         138.4485  141.4932  161.8168 N.3     1  UNL1       -0.2628
     16 C         138.4872  141.7672  160.3426 C.3     1  UNL1        0.0902
     17 C         138.6936  142.6053  162.7931 C.3     1  UNL1        0.0981
     18 C         137.5996  143.0435  163.7210 C.3     1  UNL1        0.0224
     19 C         137.8447  144.1556  164.6973 C.3     1  UNL1        0.0065
     20 C         139.1838  144.8296  164.7456 C.3     1  UNL1        0.0277
     21 C         140.2780  144.3915  163.8177 C.ar    1  UNL1       -0.0073
     22 C         141.6171  145.0655  163.8660 C.ar    1  UNL1       -0.0015
     23 C         142.7111  144.6274  162.9381 C.ar    1  UNL1        0.0203
     24 C         142.4660  143.5153  161.9618 C.ar    1  UNL1        0.0985
     25 N         141.1269  142.8413  161.9135 N.ar    1  UNL1       -0.2471
     26 C         140.0328  143.2794  162.8414 C.ar    1  UNL1        0.0695
@<TRIPOS>BOND
     1     7     8    1
     2     8     9    1
     3     9    10    1
     4    10    11    1
     5    11     1    1
     6     1     2   ar
     7     2     3   ar
     8     3    14    1
     9    14    15    1
    10    15    16    1
    11    17    15    1
    12    17    18    1
    13    18    19    1
    14    19    20    1
    15    20    21    1
    16    21    22   ar
    17    22    23   ar
    18    23    24   ar
    19    24    25   ar
    20    25    26   ar
    21     3     4   ar
    22     4     5   ar
    23     5     6   ar
    24    11    12    1
    25    12    13    1
    26    13     8    1
    27     6     1   ar
    28    26    17    1
    29    26    21   ar
@<TRIPOS>MOLECULE
*****
 26 29 0 0 0
SMALL
GASTEIGER

@<TRIPOS>ATOM
      1 C         139.4815  142.4488  163.6200 C.ar    1  UNL1        0.1348
      2 C         140.1869  142.8573  164.8792 C.ar    1  UNL1        0.0505
      3 C         140.0155  142.0486  166.1309 C.ar    1  UNL1        0.0797
      4 N         139.1388  140.8315  166.1234 N.ar    1  UNL1       -0.2269
      5 C         138.4334  140.4231  164.8642 C.ar    1  UNL1        0.1998
      6 N         138.6047  141.2317  163.6125 N.ar    1  UNL1       -0.2090
      7 C         140.1669  145.6834  158.6133 C.3     1  UNL1        0.0897
      8 N         139.9956  144.8748  159.8650 N.3     1  UNL1       -0.2686
      9 C         139.6794  143.4113  159.7749 C.3     1  UNL1        0.0939
     10 C         139.5080  142.6026  161.0266 C.3     1  UNL1        0.1095
     11 N         139.6529  143.2575  162.3683 N.pl3   1  UNL1       -0.2903
     12 C         139.9691  144.7210  162.4583 C.3     1  UNL1        0.1095
     13 C         140.1405  145.5297  161.2067 C.3     1  UNL1        0.0939
     14 C         140.7209  142.4570  167.3901 C.3     1  UNL1        0.1191
     15 N         142.0945  141.9309  167.6847 N.3     1  UNL1       -0.2628
     16 C         142.8463  142.4270  168.8841 C.3     1  UNL1        0.0902
     17 C         142.7161  140.9088  166.7798 C.3     1  UNL1        0.0981
     18 C         142.5077  139.4472  167.0443 C.3     1  UNL1        0.0224
     19 C         143.1294  138.4251  166.1394 C.3     1  UNL1        0.0065
     20 C         143.9595  138.8647  164.9700 C.3     1  UNL1        0.0277
     21 C         144.1680  140.3264  164.7054 C.ar    1  UNL1       -0.0073
     22 C         144.9981  140.7660  163.5360 C.ar    1  UNL1       -0.0015
     23 C         145.2066  142.2277  163.2715 C.ar    1  UNL1        0.0203
     24 C         144.5849  143.2498  164.1764 C.ar    1  UNL1        0.0985
     25 N         143.7548  142.8102  165.3458 N.ar    1  UNL1       -0.2471
     26 C         143.5463  141.3485  165.6103 C.ar    1  UNL1        0.0695
@<TRIPOS>BOND
     1     7     8    1
     2     8     9    1
     3     9    10    1
     4    10    11    1
     5    11     1    1
     6     1     2   ar
     7     2     3   ar
     8     3    14    1
     9    14    15    1
    10    15    16    1
    11    17    15    1
    12    17    18    1
    13    18    19    1
    14    19    20    1
    15    20    21    1
    16    21    22   ar
    17    22    23   ar
    18    23    24   ar
    19    24    25   ar
    20    25    26   ar
    21     3     4   ar
    22     4     5   ar
    23     5     6   ar
    24    11    12    1
    25    12    13    1
    26    13     8    1
    27     6     1   ar
    28    26    17    1
    29    26    21   ar
@<TRIPOS>MOLECULE
*****
 26 29 0 0 0
SMALL
GASTEIGER

@<TRIPOS>ATOM
      1 C         141.6839  139.0387  165.3827 C.ar    1  UNL1        0.1348
      2 C         142.5273  139.8846  164.4754 C.ar    1  UNL1        0.0505
      3 C         142.7503  139.4658  163.0523 C.ar    1  UNL1        0.0797
      4 N         142.1298  138.2013  162.5367 N.ar    1  UNL1       -0.2269
      5 C         141.2863  137.3555  163.4440 C.ar    1  UNL1        0.1998
      6 N         141.0634  137.7742  164.8670 N.ar    1  UNL1       -0.2090
      7 C         140.7921  140.7136  171.0747 C.3     1  UNL1        0.0897
      8 N         141.0151  140.2949  169.6517 N.3     1  UNL1       -0.2686
      9 C         139.8698  140.2902  168.6831 C.3     1  UNL1        0.0939
     10 C         140.0927  139.8715  167.2601 C.3     1  UNL1        0.1095
     11 N         141.4609  139.4575  166.8057 N.pl3   1  UNL1       -0.2903
     12 C         142.6063  139.4622  167.7744 C.3     1  UNL1        0.1095
     13 C         142.3833  139.8809  169.1973 C.3     1  UNL1        0.0939
     14 C         143.5937  140.3116  162.1450 C.3     1  UNL1        0.1191
     15 N         143.0055  141.5266  161.4909 N.3     1  UNL1       -0.2628
     16 C         142.6125  141.4834  160.0440 C.3     1  UNL1        0.0902
     17 C         142.8103  142.7849  162.2839 C.3     1  UNL1        0.0981
     18 C         143.9544  143.7359  162.4752 C.3     1  UNL1        0.0224
     19 C         143.7592  144.9941  163.2682 C.3     1  UNL1        0.0065
     20 C         142.4199  145.3013  163.8698 C.3     1  UNL1        0.0277
     21 C         141.2758  144.3503  163.6784 C.ar    1  UNL1       -0.0073
     22 C         139.9365  144.6575  164.2801 C.ar    1  UNL1       -0.0015
     23 C         138.7925  143.7065  164.0887 C.ar    1  UNL1        0.0203
     24 C         138.9876  142.4483  163.2958 C.ar    1  UNL1        0.0985
     25 N         140.3269  142.1411  162.6942 N.ar    1  UNL1       -0.2471
     26 C         141.4710  143.0921  162.8855 C.ar    1  UNL1        0.0695
@<TRIPOS>BOND
     1     7     8    1
     2     8     9    1
     3     9    10    1
     4    10    11    1
     5    11     1    1
     6     1     2   ar
     7     2     3   ar
     8     3    14    1
     9    14    15    1
    10    15    16    1
    11    17    15    1
    12    17    18    1
    13    18    19    1
    14    19    20    1
    15    20    21    1
    16    21    22   ar
    17    22    23   ar
    18    23    24   ar
    19    24    25   ar
    20    25    26   ar
    21     3     4   ar
    22     4     5   ar
    23     5     6   ar
    24    11    12    1
    25    12    13    1
    26    13     8    1
    27     6     1   ar
    28    26    17    1
    29    26    21   ar
@<TRIPOS>MOLECULE
*****
 26 29 0 0 0
SMALL
GASTEIGER

@<TRIPOS>ATOM
      1 C         139.5121  141.3011  165.5160 C.ar    1  UNL1        0.1348
      2 C         139.6383  142.7628  165.2037 C.ar    1  UNL1        0.0505
      3 C         138.8531  143.3586  164.0730 C.ar    1  UNL1        0.0797
      4 N         137.9418  142.4928  163.2546 N.ar    1  UNL1       -0.2269
      5 C         137.8156  141.0311  163.5669 C.ar    1  UNL1        0.1998
      6 N         138.6007  140.4352  164.6976 N.ar    1  UNL1       -0.2090
      7 C         142.6527  138.9176  170.0388 C.3     1  UNL1        0.0897
      8 N         141.8675  139.5135  168.9082 N.3     1  UNL1       -0.2686
      9 C         142.4693  139.5912  167.5364 C.3     1  UNL1        0.0939
     10 C         141.6841  140.1871  166.4056 C.3     1  UNL1        0.1095
     11 N         140.2973  140.7052  166.6467 N.pl3   1  UNL1       -0.2903
     12 C         139.6956  140.6275  168.0186 C.3     1  UNL1        0.1095
     13 C         140.4807  140.0317  169.1493 C.3     1  UNL1        0.0939
     14 C         138.9793  144.8203  163.7607 C.3     1  UNL1        0.1191
     15 N         140.0020  145.2897  162.7687 N.3     1  UNL1       -0.2628
     16 C         139.6188  146.2776  161.7070 C.3     1  UNL1        0.0902
     17 C         141.4078  144.7712  162.8385 C.3     1  UNL1        0.0981
     18 C         142.3850  145.3804  163.7997 C.3     1  UNL1        0.0224
     19 C         143.7908  144.8619  163.8696 C.3     1  UNL1        0.0065
     20 C         144.2194  143.7343  162.9782 C.3     1  UNL1        0.0277
     21 C         143.2422  143.1250  162.0170 C.ar    1  UNL1       -0.0073
     22 C         143.6708  141.9973  161.1256 C.ar    1  UNL1       -0.0015
     23 C         142.6936  141.3881  160.1644 C.ar    1  UNL1        0.0203
     24 C         141.2878  141.9066  160.0946 C.ar    1  UNL1        0.0985
     25 N         140.8592  143.0343  160.9860 N.ar    1  UNL1       -0.2471
     26 C         141.8364  143.6435  161.9471 C.ar    1  UNL1        0.0695
@<TRIPOS>BOND
     1     7     8    1
     2     8     9    1
     3     9    10    1
     4    10    11    1
     5    11     1    1
     6     1     2   ar
     7     2     3   ar
     8     3    14    1
     9    14    15    1
    10    15    16    1
    11    17    15    1
    12    17    18    1
    13    18    19    1
    14    19    20    1
    15    20    21    1
    16    21    22   ar
    17    22    23   ar
    18    23    24   ar
    19    24    25   ar
    20    25    26   ar
    21     3     4   ar
    22     4     5   ar
    23     5     6   ar
    24    11    12    1
    25    12    13    1
    26    13     8    1
    27     6     1   ar
    28    26    17    1
    29    26    21   ar
@<TRIPOS>MOLECULE
*****
 26 29 0 0 0
SMALL
GASTEIGER

@<TRIPOS>ATOM
      1 C         141.7686  138.1945  162.0766 C.ar    1  UNL1        0.1348
      2 C         142.6340  139.2212  162.7452 C.ar    1  UNL1        0.0505
      3 C         142.7886  139.2149  164.2373 C.ar    1  UNL1        0.0797
      4 N         142.0779  138.1820  165.0606 N.ar    1  UNL1       -0.2269
      5 C         141.2125  137.1553  164.3919 C.ar    1  UNL1        0.1998
      6 N         141.0579  137.1615  162.9000 N.ar    1  UNL1       -0.2090
      7 C         141.1500  138.2195  156.1087 C.3     1  UNL1        0.0897
      8 N         141.3046  138.2133  157.6006 N.3     1  UNL1       -0.2686
      9 C         142.6112  137.8107  158.2175 C.3     1  UNL1        0.0939
     10 C         142.7659  137.8044  159.7095 C.3     1  UNL1        0.1095
     11 N         141.6140  138.2008  160.5846 N.pl3   1  UNL1       -0.2903
     12 C         140.3073  138.6034  159.9677 C.3     1  UNL1        0.1095
     13 C         140.1526  138.6097  158.4757 C.3     1  UNL1        0.0939
     14 C         143.6539  140.2416  164.9059 C.3     1  UNL1        0.1191
     15 N         143.0269  141.3453  165.7052 N.3     1  UNL1       -0.2628
     16 C         142.6836  141.1244  167.1485 C.3     1  UNL1        0.0902
     17 C         142.7433  142.6699  165.0610 C.3     1  UNL1        0.0981
     18 C         143.8756  143.5798  164.6869 C.3     1  UNL1        0.0224
     19 C         143.5920  144.9044  164.0428 C.3     1  UNL1        0.0065
     20 C         142.1761  145.3192  163.7727 C.3     1  UNL1        0.0277
     21 C         141.0436  144.4093  164.1467 C.ar    1  UNL1       -0.0073
     22 C         139.6277  144.8241  163.8766 C.ar    1  UNL1       -0.0015
     23 C         138.4954  143.9143  164.2507 C.ar    1  UNL1        0.0203
     24 C         138.7790  142.5896  164.8949 C.ar    1  UNL1        0.0985
     25 N         140.1949  142.1749  165.1650 N.ar    1  UNL1       -0.2471
     26 C         141.3273  143.0847  164.7909 C.ar    1  UNL1        0.0695
@<TRIPOS>BOND
     1     7     8    1
     2     8     9    1
     3     9    10    1
     4    10    11    1
     5    11     1    1
     6     1     2   ar
     7     2     3   ar
     8     3    14    1
     9    14    15    1
    10    15    16    1
    11    17    15    1
    12    17    18    1
    13    18    19    1
    14    19    20    1
    15    20    21    1
    16    21    22   ar
    17    22    23   ar
    18    23    24   ar
    19    24    25   ar
    20    25    26   ar
    21     3     4   ar
    22     4     5   ar
    23     5     6   ar
    24    11    12    1
    25    12    13    1
    26    13     8    1
    27     6     1   ar
    28    26    17    1
    29    26    21   ar
@<TRIPOS>MOLECULE
*****
 26 29 0 0 0
SMALL
GASTEIGER

@<TRIPOS>ATOM
      1 C         143.1305  141.3155  165.1400 C.ar    1  UNL1        0.1348
      2 C         142.8191  142.6392  164.5069 C.ar    1  UNL1        0.0505
      3 C         143.0085  142.8276  163.0308 C.ar    1  UNL1        0.0797
      4 N         143.5092  141.6924  162.1880 N.ar    1  UNL1       -0.2269
      5 C         143.8206  140.3687  162.8211 C.ar    1  UNL1        0.1998
      6 N         143.6312  140.1802  164.2971 N.ar    1  UNL1       -0.2090
      7 C         142.3733  140.5617  171.0441 C.3     1  UNL1        0.0897
      8 N         142.5626  140.7502  169.5681 N.3     1  UNL1       -0.2686
      9 C         142.4444  139.5770  168.6410 C.3     1  UNL1        0.0939
     10 C         142.6337  139.7654  167.1649 C.3     1  UNL1        0.1095
     11 N         142.9412  141.1271  166.6160 N.pl3   1  UNL1       -0.2903
     12 C         143.0594  142.3003  167.5432 C.3     1  UNL1        0.1095
     13 C         142.8701  142.1118  169.0192 C.3     1  UNL1        0.0939
     14 C         142.6971  144.1513  162.3977 C.3     1  UNL1        0.1191
     15 N         141.3015  144.4530  161.9379 N.3     1  UNL1       -0.2628
     16 C         141.0760  145.1226  160.6148 C.3     1  UNL1        0.0902
     17 C         140.1314  144.0851  162.8014 C.3     1  UNL1        0.0981
     18 C         139.7550  144.9542  163.9645 C.3     1  UNL1        0.0224
     19 C         138.5849  144.5862  164.8280 C.3     1  UNL1        0.0065
     20 C         137.7912  143.3493  164.5283 C.3     1  UNL1        0.0277
     21 C         138.1676  142.4801  163.3650 C.ar    1  UNL1       -0.0073
     22 C         137.3739  141.2432  163.0653 C.ar    1  UNL1       -0.0015
     23 C         137.7503  140.3741  161.9021 C.ar    1  UNL1        0.0203
     24 C         138.9203  140.7420  161.0387 C.ar    1  UNL1        0.0985
     25 N         139.7141  141.9790  161.3384 N.ar    1  UNL1       -0.2471
     26 C         139.3377  142.8480  162.5016 C.ar    1  UNL1        0.0695
@<TRIPOS>BOND
     1     7     8    1
     2     8     9    1
     3     9    10    1
     4    10    11    1
     5    11     1    1
     6     1     2   ar
     7     2     3   ar
     8     3    14    1
     9    14    15    1
    10    15    16    1
    11    17    15    1
    12    17    18    1
    13    18    19    1
    14    19    20    1
    15    20    21    1
    16    21    22   ar
    17    22    23   ar
    18    23    24   ar
    19    24    25   ar
    20    25    26   ar
    21     3     4   ar
    22     4     5   ar
    23     5     6   ar
    24    11    12    1
    25    12    13    1
    26    13     8    1
    27     6     1   ar
    28    26    17    1
    29    26    21   ar
@<TRIPOS>MOLECULE
*****
 26 29 0 0 0
SMALL
GASTEIGER

@<TRIPOS>ATOM
      1 C         139.9727  139.7040  165.5908 C.ar    1  UNL1        0.1348
      2 C         139.9582  140.8493  164.6222 C.ar    1  UNL1        0.0505
      3 C         139.4195  140.6526  163.2361 C.ar    1  UNL1        0.0797
      4 N         138.8953  139.3107  162.8186 N.ar    1  UNL1       -0.2269
      5 C         138.9097  138.1654  163.7872 C.ar    1  UNL1        0.1998
      6 N         139.4484  138.3620  165.1732 N.ar    1  UNL1       -0.2090
      7 C         142.1274  140.4905  171.1349 C.3     1  UNL1        0.0897
      8 N         141.5887  140.2939  169.7489 N.3     1  UNL1       -0.2686
      9 C         140.1087  140.3280  169.5077 C.3     1  UNL1        0.0939
     10 C         139.5700  140.1313  168.1216 C.3     1  UNL1        0.1095
     11 N         140.5113  139.9006  166.9768 N.pl3   1  UNL1       -0.2903
     12 C         141.9915  139.8666  167.2181 C.3     1  UNL1        0.1095
     13 C         142.5301  140.0632  168.6041 C.3     1  UNL1        0.0939
     14 C         139.4050  141.7979  162.2676 C.3     1  UNL1        0.1191
     15 N         140.6873  142.2786  161.6553 N.3     1  UNL1       -0.2628
     16 C         140.9754  142.0078  160.2084 C.3     1  UNL1        0.0902
     17 C         141.6815  143.0302  162.4901 C.3     1  UNL1        0.0981
     18 C         141.4103  144.4530  162.8798 C.3     1  UNL1        0.0224
     19 C         142.4044  145.2046  163.7145 C.3     1  UNL1        0.0065
     20 C         143.6698  144.5333  164.1596 C.3     1  UNL1        0.0277
     21 C         143.9411  143.1103  163.7699 C.ar    1  UNL1       -0.0073
     22 C         145.2065  142.4390  164.2150 C.ar    1  UNL1       -0.0015
     23 C         145.4777  141.0162  163.8253 C.ar    1  UNL1        0.0203
     24 C         144.4835  140.2646  162.9905 C.ar    1  UNL1        0.0985
     25 N         143.2181  140.9359  162.5455 N.ar    1  UNL1       -0.2471
     26 C         142.9469  142.3588  162.9352 C.ar    1  UNL1        0.0695
@<TRIPOS>BOND
     1     7     8    1
     2     8     9    1
     3     9    10    1
     4    10    11    1
     5    11     1    1
     6     1     2   ar
     7     2     3   ar
     8     3    14    1
     9    14    15    1
    10    15    16    1
    11    17    15    1
    12    17    18    1
    13    18    19    1
    14    19    20    1
    15    20    21    1
    16    21    22   ar
    17    22    23   ar
    18    23    24   ar
    19    24    25   ar
    20    25    26   ar
    21     3     4   ar
    22     4     5   ar
    23     5     6   ar
    24    11    12    1
    25    12    13    1
    26    13     8    1
    27     6     1   ar
    28    26    17    1
    29    26    21   ar
