@<TRIPOS>MOLECULE
*****
 34 38 0 0 0
SMALL
GASTEIGER

@<TRIPOS>ATOM
      1 N         140.0388  140.4803  158.8065 N.3     1  UNL1       -0.2724
      2 C         139.1469  141.5253  158.2045 C.3     1  UNL1        0.0738
      3 C         138.5062  142.2894  159.3250 C.3     1  UNL1        0.0386
      4 C         139.0020  141.7166  160.6196 C.3     1  UNL1        0.0930
      5 C         139.9493  140.5986  160.2992 C.3     1  UNL1        0.0921
      6 C         143.3782  136.5222  155.7764 C.2     1  UNL1        0.2484
      7 O         144.8151  136.8288  155.4743 O.2     1  UNL1       -0.2699
      8 N         142.5434  137.5117  156.5339 N.am    1  UNL1       -0.2760
      9 C         141.1064  137.2051  156.8359 C.3     1  UNL1        0.0951
     10 C         140.2715  138.1946  157.5935 C.3     1  UNL1        0.0375
     11 C         140.8737  139.4908  158.0490 C.3     1  UNL1        0.0610
     12 C         142.3106  139.7974  157.7470 C.3     1  UNL1        0.0375
     13 C         143.1454  138.8078  156.9894 C.3     1  UNL1        0.0951
     14 C         142.0222  136.3547  153.1055 C.3     1  UNL1        0.0312
     15 C         142.0981  135.1423  153.9855 C.ar    1  UNL1       -0.0178
     16 C         141.4960  133.8462  153.5300 C.ar    1  UNL1       -0.0041
     17 C         141.5719  132.6337  154.4099 C.ar    1  UNL1       -0.0006
     18 C         142.2499  132.7175  155.7453 C.ar    1  UNL1       -0.0041
     19 C         142.8520  134.0136  156.2008 C.ar    1  UNL1       -0.0178
     20 C         143.5300  134.0974  157.5362 C.3     1  UNL1        0.0312
     21 C         142.7761  135.2260  155.3208 C.ar    1  UNL1        0.0457
     22 N         138.6181  142.1805  161.9935 N.am    1  UNL1       -0.2756
     23 C         139.2448  143.4151  162.5706 C.2     1  UNL1        0.2254
     24 O         140.2554  144.1858  161.7739 O.2     1  UNL1       -0.2749
     25 C         138.8609  143.8789  163.9444 C.3     1  UNL1        0.0767
     26 C         137.8417  144.4506  164.8849 C.3     1  UNL1        0.0096
     27 C         139.2150  144.1107  165.3834 C.3     1  UNL1        0.0096
     28 C         137.6075  141.4098  162.7902 C.3     1  UNL1        0.1201
     29 C         138.0435  140.2443  163.6278 C.ar    1  UNL1       -0.0023
     30 C         138.3902  138.9394  162.9747 C.ar    1  UNL1       -0.0026
     31 C         138.8262  137.7739  163.8125 C.ar    1  UNL1       -0.0003
     32 C         138.9153  137.9135  165.3033 C.ar    1  UNL1       -0.0000
     33 C         138.5685  139.2186  165.9565 C.ar    1  UNL1       -0.0003
     34 C         138.1326  140.3840  165.1186 C.ar    1  UNL1       -0.0026
@<TRIPOS>BOND
     1    14    15    1
     2    15    16   ar
     3    16    17   ar
     4    17    18   ar
     5    18    19   ar
     6    19    20    1
     7    19    21   ar
     8    21     6    1
     9     6     7    2
    10     6     8   am
    11     8     9    1
    12     9    10    1
    13    10    11    1
    14    11     1    1
    15     1     2    1
    16     2     3    1
    17     3     4    1
    18     4    22    1
    19    22    28    1
    20    28    29    1
    21    29    30   ar
    22    30    31   ar
    23    31    32   ar
    24    32    33   ar
    25    33    34   ar
    26    22    23   am
    27    23    24    2
    28    23    25    1
    29    25    26    1
    30    26    27    1
    31     4     5    1
    32    11    12    1
    33    12    13    1
    34    21    15   ar
    35    13     8    1
    36     5     1    1
    37    34    29   ar
    38    27    25    1
@<TRIPOS>MOLECULE
*****
 34 38 0 0 0
SMALL
GASTEIGER

@<TRIPOS>ATOM
      1 N         139.5040  139.1450  159.6722 N.3     1  UNL1       -0.2724
      2 C         138.2727  139.9575  159.4009 C.3     1  UNL1        0.0738
      3 C         137.6460  140.3039  160.7190 C.3     1  UNL1        0.0386
      4 C         138.4900  139.7053  161.8050 C.3     1  UNL1        0.0930
      5 C         139.6383  138.9891  161.1580 C.3     1  UNL1        0.0921
      6 C         143.2365  136.9105  155.5400 C.2     1  UNL1        0.2484
      7 O         144.7076  137.1897  155.6288 O.2     1  UNL1       -0.2699
      8 N         142.3034  137.4691  156.5730 N.am    1  UNL1       -0.2760
      9 C         140.8322  137.1900  156.4841 C.3     1  UNL1        0.0951
     10 C         139.8991  137.7486  157.5172 C.3     1  UNL1        0.0375
     11 C         140.4371  138.5864  158.6392 C.3     1  UNL1        0.0610
     12 C         141.9082  138.8655  158.7280 C.3     1  UNL1        0.0375
     13 C         142.8413  138.3069  157.6950 C.3     1  UNL1        0.0951
     14 C         142.1420  138.2268  153.0763 C.3     1  UNL1        0.0312
     15 C         142.1512  136.7309  153.1862 C.ar    1  UNL1       -0.0178
     16 C         141.6133  135.8931  152.0644 C.ar    1  UNL1       -0.0041
     17 C         141.6225  134.3972  152.1743 C.ar    1  UNL1       -0.0006
     18 C         142.1697  133.7390  153.4061 C.ar    1  UNL1       -0.0041
     19 C         142.7077  134.5768  154.5279 C.ar    1  UNL1       -0.0178
     20 C         143.2550  133.9187  155.7598 C.3     1  UNL1        0.0312
     21 C         142.6985  136.0727  154.4180 C.ar    1  UNL1        0.0457
     22 N         138.2312  139.8054  163.2791 N.am    1  UNL1       -0.2756
     23 C         138.7134  138.7243  164.2003 C.2     1  UNL1        0.2254
     24 O         139.4544  137.5430  163.6474 O.2     1  UNL1       -0.2749
     25 C         138.4546  138.8243  165.6744 C.3     1  UNL1        0.0767
     26 C         138.7852  139.4118  167.0144 C.3     1  UNL1        0.0096
     27 C         137.6758  138.4103  166.8876 C.3     1  UNL1        0.0096
     28 C         137.4902  140.9866  163.8320 C.3     1  UNL1        0.1201
     29 C         138.1746  142.3167  163.9424 C.ar    1  UNL1       -0.0023
     30 C         137.8949  143.3902  162.9328 C.ar    1  UNL1       -0.0026
     31 C         138.5794  144.7204  163.0433 C.ar    1  UNL1       -0.0003
     32 C         139.5436  144.9770  164.1633 C.ar    1  UNL1       -0.0000
     33 C         139.8234  143.9035  165.1729 C.ar    1  UNL1       -0.0003
     34 C         139.1389  142.5734  165.0624 C.ar    1  UNL1       -0.0026
@<TRIPOS>BOND
     1    14    15    1
     2    15    16   ar
     3    16    17   ar
     4    17    18   ar
     5    18    19   ar
     6    19    20    1
     7    19    21   ar
     8    21     6    1
     9     6     7    2
    10     6     8   am
    11     8     9    1
    12     9    10    1
    13    10    11    1
    14    11     1    1
    15     1     2    1
    16     2     3    1
    17     3     4    1
    18     4    22    1
    19    22    28    1
    20    28    29    1
    21    29    30   ar
    22    30    31   ar
    23    31    32   ar
    24    32    33   ar
    25    33    34   ar
    26    22    23   am
    27    23    24    2
    28    23    25    1
    29    25    26    1
    30    26    27    1
    31     4     5    1
    32    11    12    1
    33    12    13    1
    34    21    15   ar
    35    13     8    1
    36     5     1    1
    37    34    29   ar
    38    27    25    1
@<TRIPOS>MOLECULE
*****
 34 38 0 0 0
SMALL
GASTEIGER

@<TRIPOS>ATOM
      1 N         139.8909  139.6196  159.7921 N.3     1  UNL1       -0.2724
      2 C         138.3941  139.5311  159.8326 C.3     1  UNL1        0.0738
      3 C         137.9154  140.3144  161.0189 C.3     1  UNL1        0.0386
      4 C         139.1163  140.8871  161.7115 C.3     1  UNL1        0.0930
      5 C         140.3373  140.4576  160.9533 C.3     1  UNL1        0.0921
      6 C         143.4652  137.0693  155.7030 C.2     1  UNL1        0.2484
      7 O         144.8963  137.5025  155.5833 O.2     1  UNL1       -0.2699
      8 N         142.5717  137.7069  156.7253 N.am    1  UNL1       -0.2760
      9 C         141.1405  137.2736  156.8450 C.3     1  UNL1        0.0951
     10 C         140.2470  137.9112  157.8673 C.3     1  UNL1        0.0375
     11 C         140.7845  138.9820  158.7698 C.3     1  UNL1        0.0610
     12 C         142.2156  139.4152  158.6500 C.3     1  UNL1        0.0375
     13 C         143.1091  138.7776  157.6278 C.3     1  UNL1        0.0951
     14 C         143.7261  134.1831  156.4788 C.3     1  UNL1        0.0312
     15 C         143.0581  134.5554  155.1884 C.ar    1  UNL1       -0.0178
     16 C         142.5206  133.4847  154.2859 C.ar    1  UNL1       -0.0041
     17 C         141.8526  133.8570  152.9955 C.ar    1  UNL1       -0.0006
     18 C         141.7222  135.3001  152.6076 C.ar    1  UNL1       -0.0041
     19 C         142.2597  136.3708  153.5101 C.ar    1  UNL1       -0.0178
     20 C         142.1293  137.8140  153.1222 C.3     1  UNL1        0.0312
     21 C         142.9277  135.9985  154.8005 C.ar    1  UNL1        0.0457
     22 N         139.0994  141.7395  162.9456 N.am    1  UNL1       -0.2756
     23 C         138.4495  143.0910  162.9147 C.2     1  UNL1        0.2254
     24 O         137.8165  143.5901  161.6497 O.2     1  UNL1       -0.2749
     25 C         138.4325  143.9434  164.1489 C.3     1  UNL1        0.0767
     26 C         137.6835  144.5515  165.2975 C.3     1  UNL1        0.0096
     27 C         139.1521  144.8117  165.1379 C.3     1  UNL1        0.0096
     28 C         139.7323  141.2404  164.2107 C.3     1  UNL1        0.1201
     29 C         139.2403  139.9740  164.8465 C.ar    1  UNL1       -0.0023
     30 C         139.6396  138.6449  164.2775 C.ar    1  UNL1       -0.0026
     31 C         139.1476  137.3785  164.9134 C.ar    1  UNL1       -0.0003
     32 C         138.2563  137.4414  166.1183 C.ar    1  UNL1       -0.0000
     33 C         137.8570  138.7706  166.6873 C.ar    1  UNL1       -0.0003
     34 C         138.3491  140.0369  166.0514 C.ar    1  UNL1       -0.0026
@<TRIPOS>BOND
     1    14    15    1
     2    15    16   ar
     3    16    17   ar
     4    17    18   ar
     5    18    19   ar
     6    19    20    1
     7    19    21   ar
     8    21     6    1
     9     6     7    2
    10     6     8   am
    11     8     9    1
    12     9    10    1
    13    10    11    1
    14    11     1    1
    15     1     2    1
    16     2     3    1
    17     3     4    1
    18     4    22    1
    19    22    28    1
    20    28    29    1
    21    29    30   ar
    22    30    31   ar
    23    31    32   ar
    24    32    33   ar
    25    33    34   ar
    26    22    23   am
    27    23    24    2
    28    23    25    1
    29    25    26    1
    30    26    27    1
    31     4     5    1
    32    11    12    1
    33    12    13    1
    34    21    15   ar
    35    13     8    1
    36     5     1    1
    37    34    29   ar
    38    27    25    1
@<TRIPOS>MOLECULE
*****
 34 38 0 0 0
SMALL
GASTEIGER

@<TRIPOS>ATOM
      1 N         140.0060  139.3399  160.0838 N.3     1  UNL1       -0.2724
      2 C         138.6099  138.9011  160.4126 C.3     1  UNL1        0.0738
      3 C         138.1397  139.6973  161.5937 C.3     1  UNL1        0.0386
      4 C         139.2453  140.6283  161.9948 C.3     1  UNL1        0.0930
      5 C         140.3987  140.4074  161.0617 C.3     1  UNL1        0.0921
      6 C         143.4203  137.2010  155.6377 C.2     1  UNL1        0.2484
      7 O         144.8736  137.5653  155.5663 O.2     1  UNL1       -0.2699
      8 N         142.5667  137.7357  156.7492 N.am    1  UNL1       -0.2760
      9 C         141.1133  137.3714  156.8205 C.3     1  UNL1        0.0951
     10 C         140.2598  137.9061  157.9320 C.3     1  UNL1        0.0375
     11 C         140.8596  138.8052  158.9723 C.3     1  UNL1        0.0610
     12 C         142.3129  139.1695  158.9009 C.3     1  UNL1        0.0375
     13 C         143.1665  138.6347  157.7894 C.3     1  UNL1        0.0951
     14 C         143.5156  134.2236  155.9929 C.3     1  UNL1        0.0312
     15 C         142.8681  134.8133  154.7751 C.ar    1  UNL1       -0.0178
     16 C         142.2683  133.9143  153.7349 C.ar    1  UNL1       -0.0041
     17 C         141.6208  134.5040  152.5171 C.ar    1  UNL1       -0.0006
     18 C         141.5732  135.9927  152.3395 C.ar    1  UNL1       -0.0041
     19 C         142.1730  136.8916  153.3797 C.ar    1  UNL1       -0.0178
     20 C         142.1253  138.3804  153.2021 C.3     1  UNL1        0.0312
     21 C         142.8205  136.3019  154.5975 C.ar    1  UNL1        0.0457
     22 N         139.2046  141.6081  163.1298 N.am    1  UNL1       -0.2756
     23 C         138.4188  142.8788  162.9959 C.2     1  UNL1        0.2254
     24 O         137.6737  143.1696  161.7269 O.2     1  UNL1       -0.2749
     25 C         138.3782  143.8586  164.1309 C.3     1  UNL1        0.0767
     26 C         139.0576  144.8916  164.9803 C.3     1  UNL1        0.0096
     27 C         137.6284  144.5228  165.2474 C.3     1  UNL1        0.0096
     28 C         139.9498  141.3173  164.3988 C.3     1  UNL1        0.1201
     29 C         141.2795  141.9635  164.6526 C.ar    1  UNL1       -0.0023
     30 C         141.9227  141.8503  166.0029 C.ar    1  UNL1       -0.0026
     31 C         143.2525  142.4965  166.2567 C.ar    1  UNL1       -0.0003
     32 C         143.9389  143.2557  165.1602 C.ar    1  UNL1       -0.0000
     33 C         143.2956  143.3689  163.8098 C.ar    1  UNL1       -0.0003
     34 C         141.9659  142.7227  163.5561 C.ar    1  UNL1       -0.0026
@<TRIPOS>BOND
     1    14    15    1
     2    15    16   ar
     3    16    17   ar
     4    17    18   ar
     5    18    19   ar
     6    19    20    1
     7    19    21   ar
     8    21     6    1
     9     6     7    2
    10     6     8   am
    11     8     9    1
    12     9    10    1
    13    10    11    1
    14    11     1    1
    15     1     2    1
    16     2     3    1
    17     3     4    1
    18     4    22    1
    19    22    28    1
    20    28    29    1
    21    29    30   ar
    22    30    31   ar
    23    31    32   ar
    24    32    33   ar
    25    33    34   ar
    26    22    23   am
    27    23    24    2
    28    23    25    1
    29    25    26    1
    30    26    27    1
    31     4     5    1
    32    11    12    1
    33    12    13    1
    34    21    15   ar
    35    13     8    1
    36     5     1    1
    37    34    29   ar
    38    27    25    1
@<TRIPOS>MOLECULE
*****
 34 38 0 0 0
SMALL
GASTEIGER

@<TRIPOS>ATOM
      1 N         143.6402  141.2429  161.3156 N.3     1  UNL1       -0.2724
      2 C         144.6519  141.3973  162.4123 C.3     1  UNL1        0.0738
      3 C         143.9274  141.3310  163.7241 C.3     1  UNL1        0.0386
      4 C         142.4680  141.1355  163.4382 C.3     1  UNL1        0.0930
      5 C         142.2905  141.0811  161.9497 C.3     1  UNL1        0.0921
      6 C         144.7904  141.2681  155.4270 C.2     1  UNL1        0.2484
      7 O         144.4891  140.0544  154.5987 O.2     1  UNL1       -0.2699
      8 N         144.5029  141.2618  156.8991 N.am    1  UNL1       -0.2760
      9 C         144.8042  142.4757  157.7274 C.3     1  UNL1        0.0951
     10 C         144.5166  142.4694  159.1995 C.3     1  UNL1        0.0375
     11 C         143.9278  141.2492  159.8435 C.3     1  UNL1        0.0610
     12 C         143.6265  140.0355  159.0153 C.3     1  UNL1        0.0375
     13 C         143.9140  140.0418  157.5431 C.3     1  UNL1        0.0951
     14 C         142.9945  143.3123  154.1635 C.3     1  UNL1        0.0312
     15 C         144.4813  143.5103  154.1513 C.ar    1  UNL1       -0.0178
     16 C         145.0702  144.7303  153.5074 C.ar    1  UNL1       -0.0041
     17 C         146.5570  144.9284  153.4953 C.ar    1  UNL1       -0.0006
     18 C         147.4549  143.9064  154.1270 C.ar    1  UNL1       -0.0041
     19 C         146.8661  142.6863  154.7709 C.ar    1  UNL1       -0.0178
     20 C         147.7640  141.6642  155.4026 C.3     1  UNL1        0.0312
     21 C         145.3793  142.4883  154.7830 C.ar    1  UNL1        0.0457
     22 N         141.3775  141.0155  164.4611 N.am    1  UNL1       -0.2756
     23 C         140.7450  139.6823  164.7302 C.2     1  UNL1        0.2254
     24 O         141.2031  138.4690  163.9764 O.2     1  UNL1       -0.2749
     25 C         139.6545  139.5623  165.7531 C.3     1  UNL1        0.0767
     26 C         138.1996  139.4233  166.0907 C.3     1  UNL1        0.0096
     27 C         139.2206  139.4934  167.1873 C.3     1  UNL1        0.0096
     28 C         140.9194  142.2288  165.2149 C.3     1  UNL1        0.1201
     29 C         141.3161  142.4146  166.6495 C.ar    1  UNL1       -0.0023
     30 C         142.7125  142.0887  167.0896 C.ar    1  UNL1       -0.0026
     31 C         143.1092  142.2745  168.5243 C.ar    1  UNL1       -0.0003
     32 C         142.1095  142.7862  169.5187 C.ar    1  UNL1       -0.0000
     33 C         140.7131  143.1120  169.0785 C.ar    1  UNL1       -0.0003
     34 C         140.3164  142.9262  167.6438 C.ar    1  UNL1       -0.0026
@<TRIPOS>BOND
     1    14    15    1
     2    15    16   ar
     3    16    17   ar
     4    17    18   ar
     5    18    19   ar
     6    19    20    1
     7    19    21   ar
     8    21     6    1
     9     6     7    2
    10     6     8   am
    11     8     9    1
    12     9    10    1
    13    10    11    1
    14    11     1    1
    15     1     2    1
    16     2     3    1
    17     3     4    1
    18     4    22    1
    19    22    28    1
    20    28    29    1
    21    29    30   ar
    22    30    31   ar
    23    31    32   ar
    24    32    33   ar
    25    33    34   ar
    26    22    23   am
    27    23    24    2
    28    23    25    1
    29    25    26    1
    30    26    27    1
    31     4     5    1
    32    11    12    1
    33    12    13    1
    34    21    15   ar
    35    13     8    1
    36     5     1    1
    37    34    29   ar
    38    27    25    1
@<TRIPOS>MOLECULE
*****
 34 38 0 0 0
SMALL
GASTEIGER

@<TRIPOS>ATOM
      1 N         141.6873  139.5588  160.6307 N.3     1  UNL1       -0.2724
      2 C         142.4683  140.4432  161.5568 C.3     1  UNL1        0.0738
      3 C         141.7331  140.5115  162.8625 C.3     1  UNL1        0.0386
      4 C         140.4976  139.6693  162.7433 C.3     1  UNL1        0.0930
      5 C         140.4693  139.0805  161.3640 C.3     1  UNL1        0.0921
      6 C         143.1737  138.1770  154.9843 C.2     1  UNL1        0.2484
      7 O         144.2805  138.9201  154.2969 O.2     1  UNL1       -0.2699
      8 N         142.8021  138.5224  156.3959 N.am    1  UNL1       -0.2760
      9 C         141.6952  137.7792  157.0834 C.3     1  UNL1        0.0951
     10 C         141.3236  138.1247  158.4949 C.3     1  UNL1        0.0375
     11 C         142.0589  139.2133  159.2191 C.3     1  UNL1        0.0610
     12 C         143.1657  139.9565  158.5316 C.3     1  UNL1        0.0375
     13 C         143.5373  139.6110  157.1200 C.3     1  UNL1        0.0951
     14 C         143.9148  135.3060  155.4407 C.3     1  UNL1        0.0312
     15 C         142.8090  135.6529  154.4884 C.ar    1  UNL1       -0.0178
     16 C         142.0738  134.5643  153.7643 C.ar    1  UNL1       -0.0041
     17 C         140.9680  134.9112  152.8120 C.ar    1  UNL1       -0.0006
     18 C         140.5974  136.3466  152.5838 C.ar    1  UNL1       -0.0041
     19 C         141.3327  137.4352  153.3079 C.ar    1  UNL1       -0.0178
     20 C         140.9622  138.8707  153.0797 C.3     1  UNL1        0.0312
     21 C         142.4385  137.0883  154.2602 C.ar    1  UNL1        0.0457
     22 N         139.4708  139.4536  163.8153 N.am    1  UNL1       -0.2756
     23 C         139.6175  138.3105  164.7753 C.2     1  UNL1        0.2254
     24 O         140.7910  137.3830  164.6634 O.2     1  UNL1       -0.2749
     25 C         138.5906  138.0949  165.8472 C.3     1  UNL1        0.0767
     26 C         137.7499  138.6316  166.9676 C.3     1  UNL1        0.0096
     27 C         137.6527  137.1849  166.5835 C.3     1  UNL1        0.0096
     28 C         138.2972  140.3812  163.9272 C.3     1  UNL1        0.1201
     29 C         138.4978  141.7911  164.3984 C.ar    1  UNL1       -0.0023
     30 C         137.6653  142.8991  163.8249 C.ar    1  UNL1       -0.0026
     31 C         137.8659  144.3090  164.2961 C.ar    1  UNL1       -0.0003
     32 C         138.8991  144.6108  165.3408 C.ar    1  UNL1       -0.0000
     33 C         139.7317  143.5027  165.9143 C.ar    1  UNL1       -0.0003
     34 C         139.5310  142.0928  165.4431 C.ar    1  UNL1       -0.0026
@<TRIPOS>BOND
     1    14    15    1
     2    15    16   ar
     3    16    17   ar
     4    17    18   ar
     5    18    19   ar
     6    19    20    1
     7    19    21   ar
     8    21     6    1
     9     6     7    2
    10     6     8   am
    11     8     9    1
    12     9    10    1
    13    10    11    1
    14    11     1    1
    15     1     2    1
    16     2     3    1
    17     3     4    1
    18     4    22    1
    19    22    28    1
    20    28    29    1
    21    29    30   ar
    22    30    31   ar
    23    31    32   ar
    24    32    33   ar
    25    33    34   ar
    26    22    23   am
    27    23    24    2
    28    23    25    1
    29    25    26    1
    30    26    27    1
    31     4     5    1
    32    11    12    1
    33    12    13    1
    34    21    15   ar
    35    13     8    1
    36     5     1    1
    37    34    29   ar
    38    27    25    1
@<TRIPOS>MOLECULE
*****
 34 38 0 0 0
SMALL
GASTEIGER

@<TRIPOS>ATOM
      1 N         139.0260  140.7370  161.6272 N.3     1  UNL1       -0.2724
      2 C         137.6477  141.2008  161.9948 C.3     1  UNL1        0.0738
      3 C         137.6160  141.4314  163.4766 C.3     1  UNL1        0.0386
      4 C         138.9747  141.1101  164.0249 C.3     1  UNL1        0.0930
      5 C         139.8462  140.6810  162.8819 C.3     1  UNL1        0.0921
      6 C         140.9253  139.3498  156.1074 C.2     1  UNL1        0.2484
      7 O         140.6685  140.2902  154.9674 O.2     1  UNL1       -0.2699
      8 N         140.4505  139.6966  157.4873 N.am    1  UNL1       -0.2760
      9 C         140.7073  138.7560  158.6273 C.3     1  UNL1        0.0951
     10 C         140.2325  139.1029  160.0073 C.3     1  UNL1        0.0375
     11 C         139.5009  140.3902  160.2472 C.3     1  UNL1        0.0610
     12 C         139.2441  141.3307  159.1073 C.3     1  UNL1        0.0375
     13 C         139.7189  140.9839  157.7273 C.3     1  UNL1        0.0951
     14 C         143.9248  139.3014  156.1347 C.3     1  UNL1        0.0312
     15 C         143.1567  138.0383  155.8811 C.ar    1  UNL1       -0.0178
     16 C         143.8882  136.7510  155.6411 C.ar    1  UNL1       -0.0041
     17 C         143.1200  135.4878  155.3875 C.ar    1  UNL1       -0.0006
     18 C         141.6203  135.5119  155.3739 C.ar    1  UNL1       -0.0041
     19 C         140.8888  136.7992  155.6138 C.ar    1  UNL1       -0.0178
     20 C         139.3890  136.8234  155.6001 C.3     1  UNL1        0.0312
     21 C         141.6570  138.0624  155.8674 C.ar    1  UNL1        0.0457
     22 N         139.3893  141.2018  165.4635 N.am    1  UNL1       -0.2756
     23 C         139.2268  140.0162  166.3679 C.2     1  UNL1        0.2254
     24 O         138.6497  138.7389  165.8336 O.2     1  UNL1       -0.2749
     25 C         139.6413  140.1079  167.8065 C.3     1  UNL1        0.0767
     26 C         139.2855  140.2968  169.2514 C.3     1  UNL1        0.0096
     27 C         140.7150  140.0779  168.8535 C.3     1  UNL1        0.0096
     28 C         139.9663  142.4792  165.9978 C.3     1  UNL1        0.1201
     29 C         141.3095  142.9509  165.5252 C.ar    1  UNL1       -0.0023
     30 C         142.5592  142.3572  166.1043 C.ar    1  UNL1       -0.0026
     31 C         143.9025  142.8290  165.6316 C.ar    1  UNL1       -0.0003
     32 C         143.9958  143.8943  164.5799 C.ar    1  UNL1       -0.0000
     33 C         142.7459  144.4880  164.0007 C.ar    1  UNL1       -0.0003
     34 C         141.4028  144.0162  164.4734 C.ar    1  UNL1       -0.0026
@<TRIPOS>BOND
     1    14    15    1
     2    15    16   ar
     3    16    17   ar
     4    17    18   ar
     5    18    19   ar
     6    19    20    1
     7    19    21   ar
     8    21     6    1
     9     6     7    2
    10     6     8   am
    11     8     9    1
    12     9    10    1
    13    10    11    1
    14    11     1    1
    15     1     2    1
    16     2     3    1
    17     3     4    1
    18     4    22    1
    19    22    28    1
    20    28    29    1
    21    29    30   ar
    22    30    31   ar
    23    31    32   ar
    24    32    33   ar
    25    33    34   ar
    26    22    23   am
    27    23    24    2
    28    23    25    1
    29    25    26    1
    30    26    27    1
    31     4     5    1
    32    11    12    1
    33    12    13    1
    34    21    15   ar
    35    13     8    1
    36     5     1    1
    37    34    29   ar
    38    27    25    1
@<TRIPOS>MOLECULE
*****
 34 38 0 0 0
SMALL
GASTEIGER

@<TRIPOS>ATOM
      1 N         144.0860  141.6892  161.6560 N.3     1  UNL1       -0.2724
      2 C         145.1910  141.9646  162.6322 C.3     1  UNL1        0.0738
      3 C         144.6050  141.9470  164.0128 C.3     1  UNL1        0.0386
      4 C         143.1377  141.6608  163.8899 C.3     1  UNL1        0.0930
      5 C         142.8170  141.5014  162.4333 C.3     1  UNL1        0.0921
      6 C         144.6440  141.3910  155.6894 C.2     1  UNL1        0.2484
      7 O         144.1937  140.1634  154.9544 O.2     1  UNL1       -0.2699
      8 N         144.5045  141.4655  157.1810 N.am    1  UNL1       -0.2760
      9 C         144.9548  142.6932  157.9160 C.3     1  UNL1        0.0951
     10 C         144.8153  142.7678  159.4076 C.3     1  UNL1        0.0375
     11 C         144.2255  141.6146  160.1643 C.3     1  UNL1        0.0610
     12 C         143.7752  140.3870  159.4294 C.3     1  UNL1        0.0375
     13 C         143.9147  140.3125  157.9377 C.3     1  UNL1        0.0951
     14 C         142.8455  143.4266  154.4159 C.3     1  UNL1        0.0312
     15 C         144.3345  143.5619  154.2960 C.ar    1  UNL1       -0.0178
     16 C         144.9243  144.7150  153.5394 C.ar    1  UNL1       -0.0041
     17 C         146.4134  144.8503  153.4195 C.ar    1  UNL1       -0.0006
     18 C         147.3127  143.8325  154.0562 C.ar    1  UNL1       -0.0041
     19 C         146.7229  142.6794  154.8128 C.ar    1  UNL1       -0.0178
     20 C         147.6221  141.6616  155.4496 C.3     1  UNL1        0.0312
     21 C         145.2338  142.5441  154.9327 C.ar    1  UNL1        0.0457
     22 N         142.1624  141.5529  165.0244 N.am    1  UNL1       -0.2756
     23 C         141.9072  140.2232  165.6701 C.2     1  UNL1        0.2254
     24 O         142.6273  139.0015  165.1813 O.2     1  UNL1       -0.2749
     25 C         140.9318  140.1153  166.8046 C.3     1  UNL1        0.0767
     26 C         139.5622  139.7741  167.3121 C.3     1  UNL1        0.0096
     27 C         140.6121  140.2695  168.2619 C.3     1  UNL1        0.0096
     28 C         141.4422  142.7745  165.5132 C.3     1  UNL1        0.1201
     29 C         140.2388  143.2814  164.7751 C.ar    1  UNL1       -0.0023
     30 C         138.9121  142.6035  164.9485 C.ar    1  UNL1       -0.0026
     31 C         137.7086  143.1104  164.2103 C.ar    1  UNL1       -0.0003
     32 C         137.8320  144.2952  163.2987 C.ar    1  UNL1       -0.0000
     33 C         139.1588  144.9731  163.1253 C.ar    1  UNL1       -0.0003
     34 C         140.3622  144.4662  163.8635 C.ar    1  UNL1       -0.0026
@<TRIPOS>BOND
     1    14    15    1
     2    15    16   ar
     3    16    17   ar
     4    17    18   ar
     5    18    19   ar
     6    19    20    1
     7    19    21   ar
     8    21     6    1
     9     6     7    2
    10     6     8   am
    11     8     9    1
    12     9    10    1
    13    10    11    1
    14    11     1    1
    15     1     2    1
    16     2     3    1
    17     3     4    1
    18     4    22    1
    19    22    28    1
    20    28    29    1
    21    29    30   ar
    22    30    31   ar
    23    31    32   ar
    24    32    33   ar
    25    33    34   ar
    26    22    23   am
    27    23    24    2
    28    23    25    1
    29    25    26    1
    30    26    27    1
    31     4     5    1
    32    11    12    1
    33    12    13    1
    34    21    15   ar
    35    13     8    1
    36     5     1    1
    37    34    29   ar
    38    27    25    1
@<TRIPOS>MOLECULE
*****
 34 38 0 0 0
SMALL
GASTEIGER

@<TRIPOS>ATOM
      1 N         141.5093  138.6694  162.3339 N.3     1  UNL1       -0.2724
      2 C         141.3397  137.3744  163.0717 C.3     1  UNL1        0.0738
      3 C         140.7919  137.6848  164.4332 C.3     1  UNL1        0.0386
      4 C         140.6229  139.1717  164.5369 C.3     1  UNL1        0.0930
      5 C         141.0663  139.7801  163.2395 C.3     1  UNL1        0.0921
      6 C         143.5935  139.2960  156.7426 C.2     1  UNL1        0.2484
      7 O         144.9229  139.9494  156.5066 O.2     1  UNL1       -0.2699
      8 N         143.0725  139.1394  158.1404 N.am    1  UNL1       -0.2760
      9 C         141.7430  138.4860  158.3764 C.3     1  UNL1        0.0951
     10 C         141.2219  138.3293  159.7743 C.3     1  UNL1        0.0375
     11 C         142.0303  138.8260  160.9361 C.3     1  UNL1        0.0610
     12 C         143.3598  139.4794  160.7001 C.3     1  UNL1        0.0375
     13 C         143.8808  139.6361  159.3022 C.3     1  UNL1        0.0951
     14 C         144.0966  136.5570  155.6268 C.3     1  UNL1        0.0312
     15 C         143.0367  137.4298  155.0229 C.ar    1  UNL1       -0.0178
     16 C         142.2283  136.9332  153.8611 C.ar    1  UNL1       -0.0041
     17 C         141.1683  137.8060  153.2572 C.ar    1  UNL1       -0.0006
     18 C         140.9168  139.1754  153.8151 C.ar    1  UNL1       -0.0041
     19 C         141.7252  139.6721  154.9768 C.ar    1  UNL1       -0.0178
     20 C         141.4737  141.0416  155.5347 C.3     1  UNL1        0.0312
     21 C         142.7851  138.7993  155.5808 C.ar    1  UNL1        0.0457
     22 N         140.1021  139.9189  165.7286 N.am    1  UNL1       -0.2756
     23 C         140.8703  139.9052  167.0169 C.2     1  UNL1        0.2254
     24 O         142.1594  139.1442  167.1134 O.2     1  UNL1       -0.2749
     25 C         140.3494  140.6524  168.2087 C.3     1  UNL1        0.0767
     26 C         140.2753  141.9102  169.0227 C.3     1  UNL1        0.0096
     27 C         139.5215  140.6889  169.4589 C.3     1  UNL1        0.0096
     28 C         138.8130  140.6799  165.6322 C.3     1  UNL1        0.1201
     29 C         138.7959  142.0527  165.0281 C.ar    1  UNL1       -0.0023
     30 C         137.6896  142.4480  164.0955 C.ar    1  UNL1       -0.0026
     31 C         137.6725  143.8210  163.4914 C.ar    1  UNL1       -0.0003
     32 C         138.7617  144.7985  163.8200 C.ar    1  UNL1       -0.0000
     33 C         139.8681  144.4032  164.7526 C.ar    1  UNL1       -0.0003
     34 C         139.8851  143.0303  165.3567 C.ar    1  UNL1       -0.0026
@<TRIPOS>BOND
     1    14    15    1
     2    15    16   ar
     3    16    17   ar
     4    17    18   ar
     5    18    19   ar
     6    19    20    1
     7    19    21   ar
     8    21     6    1
     9     6     7    2
    10     6     8   am
    11     8     9    1
    12     9    10    1
    13    10    11    1
    14    11     1    1
    15     1     2    1
    16     2     3    1
    17     3     4    1
    18     4    22    1
    19    22    28    1
    20    28    29    1
    21    29    30   ar
    22    30    31   ar
    23    31    32   ar
    24    32    33   ar
    25    33    34   ar
    26    22    23   am
    27    23    24    2
    28    23    25    1
    29    25    26    1
    30    26    27    1
    31     4     5    1
    32    11    12    1
    33    12    13    1
    34    21    15   ar
    35    13     8    1
    36     5     1    1
    37    34    29   ar
    38    27    25    1
