@<TRIPOS>MOLECULE
*****
 39 44 0 0 0
SMALL
GASTEIGER

@<TRIPOS>ATOM
      1 C         137.7631  142.6111  163.8747 C.3     1  UNL1        0.0932
      2 C         137.6352  142.4805  162.3859 C.3     1  UNL1        0.0286
      3 C         137.7024  141.1268  161.7432 C.3     1  UNL1        0.0193
      4 C         137.8974  139.9037  162.5893 C.3     1  UNL1        0.0700
      5 C         138.0253  140.0343  164.0782 C.3     1  UNL1        0.0193
      6 C         137.9581  141.3879  164.7209 C.3     1  UNL1        0.0286
      7 C         137.8669  140.6241  162.9868 C.3     1  UNL1        0.1562
      8 O         137.8061  141.8482  163.5680 O.3     1  UNL1       -0.3572
      9 N         137.9646  138.5500  161.9466 N.3     1  UNL1       -0.2926
     10 H         137.3817  138.5918  161.1106 H       1  UNL1        0.1236
     11 C         139.2883  137.9854  161.5238 C.3     1  UNL1        0.1152
     12 C         140.5026  138.2004  162.3777 C.ar    1  UNL1        0.0765
     13 C         140.6714  137.4249  163.6505 C.ar    1  UNL1        0.0193
     14 C         141.8858  137.6400  164.5044 C.ar    1  UNL1        0.0411
     15 C         142.9313  138.6305  164.0855 C.ar    1  UNL1        0.1708
     16 C         142.7625  139.4061  162.8127 C.ar    1  UNL1        0.1682
     17 N         141.5482  139.1910  161.9588 N.ar    1  UNL1       -0.2304
     18 N         143.8081  140.3967  162.3938 N.am    1  UNL1       -0.2639
     19 C         145.0225  140.6118  163.2477 C.2     1  UNL1        0.2718
     20 O         146.0680  141.6023  162.8288 O.2     1  UNL1       -0.2707
     21 C         145.1912  139.8362  164.5205 C.3     1  UNL1        0.2898
     22 O         144.1457  138.8456  164.9394 O.3     1  UNL1       -0.4628
     23 H         143.6974  140.9057  161.5584 H       1  UNL1        0.1565
     24 C         137.6959  143.9648  164.5174 C.3     1  UNL1        0.0319
     25 C         138.9442  144.7802  164.6808 C.3     1  UNL1        0.0304
     26 C         140.5684  145.1596  160.5013 C.ar    1  UNL1        0.2281
     27 C         141.9025  144.5658  160.1583 C.ar    1  UNL1        0.0961
     28 C         142.6951  143.8454  161.2084 C.ar    1  UNL1        0.1623
     29 C         142.1537  143.7189  162.6016 C.ar    1  UNL1        0.1326
     30 N         142.9463  142.9986  163.6517 N.ar    1  UNL1       -0.2393
     31 C         142.4049  142.8721  165.0449 C.ar    1  UNL1        0.0987
     32 C         141.0709  143.4660  165.3879 C.ar    1  UNL1        0.0179
     33 C         140.2783  144.1863  164.3378 C.ar    1  UNL1       -0.0012
     34 C         140.8197  144.3128  162.9446 C.ar    1  UNL1        0.1010
     35 N         140.0270  145.0332  161.8944 N.ar    1  UNL1       -0.2103
     36 C         140.2221  145.8456  158.0194 C.3     1  UNL1        0.2542
     37 O         139.7758  145.8800  159.4511 O.3     1  UNL1       -0.4561
     38 O         144.0291  143.2516  160.8654 O.3     1  UNL1       -0.4697
     39 C         144.2083  142.5034  159.5778 C.3     1  UNL1        0.2525
@<TRIPOS>BOND
     1    36    37    1
     2    37    26    1
     3    26    27   ar
     4    27    28   ar
     5    28    38    1
     6    38    39    1
     7    28    29   ar
     8    29    30   ar
     9    30    31   ar
    10    31    32   ar
    11    32    33   ar
    12    33    25    1
    13    25    24    1
    14    24     1    1
    15     1     2    1
    16     2     3    1
    17     3     4    1
    18     4     9    1
    19     9    11    1
    20    11    12    1
    21    12    13   ar
    22    13    14   ar
    23    14    15   ar
    24    15    16   ar
    25    16    17   ar
    26    16    18    1
    27    18    19   am
    28    19    20    2
    29    19    21    1
    30    21    22    1
    31     4     5    1
    32     5     6    1
    33     4     7    1
    34     7     8    1
    35    33    34   ar
    36    34    35   ar
    37    35    26   ar
    38    34    29   ar
    39     6     1    1
    40     8     1    1
    41    17    12   ar
    42    22    15    1
    43     9    10    1
    44    18    23    1
@<TRIPOS>MOLECULE
*****
 39 44 0 0 0
SMALL
GASTEIGER

@<TRIPOS>ATOM
      1 C         142.2102  137.8983  163.9960 C.3     1  UNL1        0.0932
      2 C         142.4280  138.3070  162.5693 C.3     1  UNL1        0.0286
      3 C         143.5359  139.2566  162.2219 C.3     1  UNL1        0.0193
      4 C         144.4261  139.7976  163.3012 C.3     1  UNL1        0.0700
      5 C         144.2084  139.3889  164.7280 C.3     1  UNL1        0.0193
      6 C         143.1004  138.4393  165.0754 C.3     1  UNL1        0.0286
      7 C         143.8322  139.2799  163.5403 C.3     1  UNL1        0.1562
      8 O         142.8303  138.4212  163.8544 O.3     1  UNL1       -0.3572
      9 N         145.5340  140.7472  162.9538 N.3     1  UNL1       -0.2926
     10 H         145.5659  140.8027  161.9358 H       1  UNL1        0.1236
     11 C         145.5004  142.1576  163.4635 C.3     1  UNL1        0.1152
     12 C         144.2789  143.0023  163.2529 C.ar    1  UNL1        0.0765
     13 C         143.5356  143.5535  164.4334 C.ar    1  UNL1        0.0193
     14 C         142.3141  144.3982  164.2228 C.ar    1  UNL1        0.0411
     15 C         141.8358  144.6916  162.8317 C.ar    1  UNL1        0.1708
     16 C         142.5791  144.1404  161.6512 C.ar    1  UNL1        0.1682
     17 N         143.8006  143.2957  161.8618 N.ar    1  UNL1       -0.2304
     18 N         142.1008  144.4338  160.2600 N.am    1  UNL1       -0.2639
     19 C         140.8793  145.2785  160.0495 C.2     1  UNL1        0.2718
     20 O         140.4011  145.5719  158.6584 O.2     1  UNL1       -0.2707
     21 C         140.1360  145.8298  161.2300 C.3     1  UNL1        0.2898
     22 O         140.6143  145.5363  162.6211 O.3     1  UNL1       -0.4628
     23 H         142.5887  144.0720  159.4852 H       1  UNL1        0.1565
     24 C         141.1023  136.9487  164.3435 C.3     1  UNL1        0.0319
     25 C         139.7918  137.4771  164.8466 C.3     1  UNL1        0.0304
     26 C         140.5995  141.3047  167.0707 C.ar    1  UNL1        0.2281
     27 C         140.0637  142.6041  166.5466 C.ar    1  UNL1        0.0961
     28 C         139.2587  142.6275  165.2812 C.ar    1  UNL1        0.1623
     29 C         138.9895  141.3516  164.5398 C.ar    1  UNL1        0.1326
     30 N         138.1845  141.3751  163.2743 N.ar    1  UNL1       -0.2393
     31 C         137.9153  140.0992  162.5330 C.ar    1  UNL1        0.0987
     32 C         138.4510  138.7999  163.0571 C.ar    1  UNL1        0.0179
     33 C         139.2560  138.7764  164.3225 C.ar    1  UNL1       -0.0012
     34 C         139.5252  140.0523  165.0639 C.ar    1  UNL1        0.1010
     35 N         140.3303  140.0289  166.3294 N.ar    1  UNL1       -0.2103
     36 C         142.6121  140.3977  168.4407 C.3     1  UNL1        0.2542
     37 O         141.4045  141.2813  168.3362 O.3     1  UNL1       -0.4561
     38 O         138.7230  143.9269  164.7571 O.3     1  UNL1       -0.4697
     39 C         138.5277  145.0873  165.6872 C.3     1  UNL1        0.2525
@<TRIPOS>BOND
     1    36    37    1
     2    37    26    1
     3    26    27   ar
     4    27    28   ar
     5    28    38    1
     6    38    39    1
     7    28    29   ar
     8    29    30   ar
     9    30    31   ar
    10    31    32   ar
    11    32    33   ar
    12    33    25    1
    13    25    24    1
    14    24     1    1
    15     1     2    1
    16     2     3    1
    17     3     4    1
    18     4     9    1
    19     9    11    1
    20    11    12    1
    21    12    13   ar
    22    13    14   ar
    23    14    15   ar
    24    15    16   ar
    25    16    17   ar
    26    16    18    1
    27    18    19   am
    28    19    20    2
    29    19    21    1
    30    21    22    1
    31     4     5    1
    32     5     6    1
    33     4     7    1
    34     7     8    1
    35    33    34   ar
    36    34    35   ar
    37    35    26   ar
    38    34    29   ar
    39     6     1    1
    40     8     1    1
    41    17    12   ar
    42    22    15    1
    43     9    10    1
    44    18    23    1
@<TRIPOS>MOLECULE
*****
 39 44 0 0 0
SMALL
GASTEIGER

@<TRIPOS>ATOM
      1 C         144.4579  139.6750  163.7702 C.3     1  UNL1        0.0932
      2 C         143.4776  139.3007  164.8420 C.3     1  UNL1        0.0286
      3 C         142.2978  138.4357  164.5105 C.3     1  UNL1        0.0193
      4 C         142.0983  137.9450  163.1072 C.3     1  UNL1        0.0700
      5 C         143.0786  138.3194  162.0352 C.3     1  UNL1        0.0193
      6 C         144.2584  139.1844  162.3667 C.3     1  UNL1        0.0286
      7 C         142.7599  138.4167  163.2407 C.3     1  UNL1        0.1562
      8 O         143.8267  139.1989  163.5404 O.3     1  UNL1       -0.3572
      9 N         140.9186  137.0800  162.7756 N.3     1  UNL1       -0.2926
     10 H         140.7202  136.5217  163.6059 H       1  UNL1        0.1236
     11 C         139.6225  137.7079  162.3563 C.3     1  UNL1        0.1152
     12 C         139.1672  138.9865  162.9950 C.ar    1  UNL1        0.0765
     13 C         138.6281  138.9752  164.3947 C.ar    1  UNL1        0.0193
     14 C         138.1728  140.2538  165.0334 C.ar    1  UNL1        0.0411
     15 C         138.2567  141.5437  164.2724 C.ar    1  UNL1        0.1708
     16 C         138.7959  141.5550  162.8727 C.ar    1  UNL1        0.1682
     17 N         139.2511  140.2764  162.2340 N.ar    1  UNL1       -0.2304
     18 N         138.8798  142.8449  162.1117 N.am    1  UNL1       -0.2639
     19 C         138.4246  144.1235  162.7504 C.2     1  UNL1        0.2718
     20 O         138.5085  145.4134  161.9894 O.2     1  UNL1       -0.2707
     21 C         137.8854  144.1122  164.1501 C.3     1  UNL1        0.2898
     22 O         137.8015  142.8223  164.9111 O.3     1  UNL1       -0.4628
     23 H         139.2337  142.8523  161.1930 H       1  UNL1        0.1565
     24 C         145.6376  140.5401  164.1017 C.3     1  UNL1        0.0319
     25 C         145.6408  141.9874  163.7077 C.3     1  UNL1        0.0304
     26 C         144.2483  142.6141  159.4747 C.ar    1  UNL1        0.2281
     27 C         142.9528  143.3216  159.2084 C.ar    1  UNL1        0.0961
     28 C         142.1214  143.8203  160.3529 C.ar    1  UNL1        0.1623
     29 C         142.5856  143.6114  161.7640 C.ar    1  UNL1        0.1326
     30 N         141.7542  144.1101  162.9086 N.ar    1  UNL1       -0.2393
     31 C         142.2184  143.9012  164.3195 C.ar    1  UNL1        0.0987
     32 C         143.5139  143.1936  164.5859 C.ar    1  UNL1        0.0179
     33 C         144.3452  142.6949  163.4414 C.ar    1  UNL1       -0.0012
     34 C         143.8811  142.9038  162.0304 C.ar    1  UNL1        0.1010
     35 N         144.7125  142.4052  160.8857 N.ar    1  UNL1       -0.2103
     36 C         144.4345  141.3535  157.2106 C.3     1  UNL1        0.2542
     37 O         145.0797  142.1154  158.3301 O.3     1  UNL1       -0.4561
     38 O         140.8259  144.5279  160.0865 O.3     1  UNL1       -0.4697
     39 C         140.0517  144.2298  158.8369 C.3     1  UNL1        0.2525
@<TRIPOS>BOND
     1    36    37    1
     2    37    26    1
     3    26    27   ar
     4    27    28   ar
     5    28    38    1
     6    38    39    1
     7    28    29   ar
     8    29    30   ar
     9    30    31   ar
    10    31    32   ar
    11    32    33   ar
    12    33    25    1
    13    25    24    1
    14    24     1    1
    15     1     2    1
    16     2     3    1
    17     3     4    1
    18     4     9    1
    19     9    11    1
    20    11    12    1
    21    12    13   ar
    22    13    14   ar
    23    14    15   ar
    24    15    16   ar
    25    16    17   ar
    26    16    18    1
    27    18    19   am
    28    19    20    2
    29    19    21    1
    30    21    22    1
    31     4     5    1
    32     5     6    1
    33     4     7    1
    34     7     8    1
    35    33    34   ar
    36    34    35   ar
    37    35    26   ar
    38    34    29   ar
    39     6     1    1
    40     8     1    1
    41    17    12   ar
    42    22    15    1
    43     9    10    1
    44    18    23    1
@<TRIPOS>MOLECULE
*****
 39 44 0 0 0
SMALL
GASTEIGER

@<TRIPOS>ATOM
      1 C         137.7334  142.4829  163.8872 C.3     1  UNL1        0.0932
      2 C         137.6064  142.3863  162.3958 C.3     1  UNL1        0.0286
      3 C         137.7023  141.0507  161.7198 C.3     1  UNL1        0.0193
      4 C         137.9253  139.8117  162.5353 C.3     1  UNL1        0.0700
      5 C         138.0523  139.9082  164.0269 C.3     1  UNL1        0.0193
      6 C         137.9564  141.2439  164.7028 C.3     1  UNL1        0.0286
      7 C         137.8795  140.5212  162.9505 C.3     1  UNL1        0.1562
      8 O         137.7928  141.7290  163.5617 O.3     1  UNL1       -0.3572
      9 N         138.0213  138.4761  161.8594 N.3     1  UNL1       -0.2926
     10 H         137.2680  138.4388  161.1727 H       1  UNL1        0.1236
     11 C         139.2802  138.0870  161.1426 C.3     1  UNL1        0.1152
     12 C         140.6142  138.3311  161.7836 C.ar    1  UNL1        0.0765
     13 C         141.7745  138.7876  160.9499 C.ar    1  UNL1        0.0193
     14 C         143.1086  139.0318  161.5908 C.ar    1  UNL1        0.0411
     15 C         143.2822  138.8193  163.0655 C.ar    1  UNL1        0.1708
     16 C         142.1219  138.3627  163.8992 C.ar    1  UNL1        0.1682
     17 N         140.7879  138.1186  163.2582 N.ar    1  UNL1       -0.2304
     18 N         142.2955  138.1502  165.3739 N.am    1  UNL1       -0.2639
     19 C         143.6296  138.3943  166.0149 C.2     1  UNL1        0.2718
     20 O         143.8032  138.1819  167.4895 O.2     1  UNL1       -0.2707
     21 C         144.7899  138.8509  165.1811 C.3     1  UNL1        0.2898
     22 O         144.6163  139.0634  163.7064 O.3     1  UNL1       -0.4628
     23 H         141.5340  137.8506  165.9211 H       1  UNL1        0.1565
     24 C         137.6374  143.8185  164.5632 C.3     1  UNL1        0.0319
     25 C         138.8856  144.5524  164.9548 C.3     1  UNL1        0.0304
     26 C         142.6130  142.3107  166.1086 C.ar    1  UNL1        0.2281
     27 C         143.8015  142.3103  165.1936 C.ar    1  UNL1        0.0961
     28 C         143.7476  143.0572  163.8939 C.ar    1  UNL1        0.1623
     29 C         142.5051  143.8045  163.5092 C.ar    1  UNL1        0.1326
     30 N         142.4512  144.5514  162.2095 N.ar    1  UNL1       -0.2393
     31 C         141.2088  145.2986  161.8249 C.ar    1  UNL1        0.0987
     32 C         140.0203  145.2989  162.7400 C.ar    1  UNL1        0.0179
     33 C         140.0742  144.5520  164.0397 C.ar    1  UNL1       -0.0012
     34 C         141.3166  143.8048  164.4243 C.ar    1  UNL1        0.1010
     35 N         141.3705  143.0579  165.7240 N.ar    1  UNL1       -0.2103
     36 C         143.2052  142.2348  168.6372 C.3     1  UNL1        0.2542
     37 O         142.6669  141.5637  167.4084 O.3     1  UNL1       -0.4561
     38 O         144.9362  143.0569  162.9788 O.3     1  UNL1       -0.4697
     39 C         145.0224  142.0596  161.8617 C.3     1  UNL1        0.2525
@<TRIPOS>BOND
     1    36    37    1
     2    37    26    1
     3    26    27   ar
     4    27    28   ar
     5    28    38    1
     6    38    39    1
     7    28    29   ar
     8    29    30   ar
     9    30    31   ar
    10    31    32   ar
    11    32    33   ar
    12    33    25    1
    13    25    24    1
    14    24     1    1
    15     1     2    1
    16     2     3    1
    17     3     4    1
    18     4     9    1
    19     9    11    1
    20    11    12    1
    21    12    13   ar
    22    13    14   ar
    23    14    15   ar
    24    15    16   ar
    25    16    17   ar
    26    16    18    1
    27    18    19   am
    28    19    20    2
    29    19    21    1
    30    21    22    1
    31     4     5    1
    32     5     6    1
    33     4     7    1
    34     7     8    1
    35    33    34   ar
    36    34    35   ar
    37    35    26   ar
    38    34    29   ar
    39     6     1    1
    40     8     1    1
    41    17    12   ar
    42    22    15    1
    43     9    10    1
    44    18    23    1
@<TRIPOS>MOLECULE
*****
 39 44 0 0 0
SMALL
GASTEIGER

@<TRIPOS>ATOM
      1 C         144.6426  142.5052  163.4090 C.3     1  UNL1        0.0932
      2 C         144.2164  143.3073  164.6027 C.3     1  UNL1        0.0286
      3 C         143.2002  144.3998  164.4483 C.3     1  UNL1        0.0193
      4 C         142.6102  144.6902  163.1002 C.3     1  UNL1        0.0700
      5 C         143.0363  143.8881  161.9064 C.3     1  UNL1        0.0193
      6 C         144.0525  142.7956  162.0608 C.3     1  UNL1        0.0286
      7 C         143.1637  144.0817  163.1354 C.3     1  UNL1        0.1562
      8 O         144.0826  143.0938  163.2750 O.3     1  UNL1       -0.3572
      9 N         141.5940  145.7827  162.9458 N.3     1  UNL1       -0.2926
     10 H         141.6299  146.0827  161.9716 H       1  UNL1        0.1236
     11 C         140.1525  145.5167  163.2641 C.3     1  UNL1        0.1152
     12 C         139.5765  144.1488  163.0466 C.ar    1  UNL1        0.0765
     13 C         139.2445  143.2792  164.2228 C.ar    1  UNL1        0.0193
     14 C         138.6685  141.9114  164.0054 C.ar    1  UNL1        0.0411
     15 C         138.4245  141.4132  162.6118 C.ar    1  UNL1        0.1708
     16 C         138.7565  142.2828  161.4356 C.ar    1  UNL1        0.1682
     17 N         139.3325  143.6507  161.6530 N.ar    1  UNL1       -0.2304
     18 N         138.5125  141.7847  160.0419 N.am    1  UNL1       -0.2639
     19 C         137.9365  140.4168  159.8245 C.2     1  UNL1        0.2718
     20 O         137.6925  139.9187  158.4308 O.2     1  UNL1       -0.2707
     21 C         137.6045  139.5472  161.0007 C.3     1  UNL1        0.2898
     22 O         137.8485  140.0454  162.3944 O.3     1  UNL1       -0.4628
     23 H         138.7304  142.3554  159.2699 H       1  UNL1        0.1565
     24 C         145.6587  141.4128  163.5634 C.3     1  UNL1        0.0319
     25 C         145.2444  140.0728  164.0950 C.3     1  UNL1        0.0304
     26 C         142.1181  140.3085  167.3231 C.ar    1  UNL1        0.2281
     27 C         140.7327  139.7947  167.0644 C.ar    1  UNL1        0.0961
     28 C         140.3895  139.2023  165.7298 C.ar    1  UNL1        0.1623
     29 C         141.4317  139.1237  164.6538 C.ar    1  UNL1        0.1326
     30 N         141.0885  138.5313  163.3191 N.ar    1  UNL1       -0.2393
     31 C         142.1306  138.4527  162.2432 C.ar    1  UNL1        0.0987
     32 C         143.5159  138.9665  162.5018 C.ar    1  UNL1        0.0179
     33 C         143.8591  139.5589  163.8364 C.ar    1  UNL1       -0.0012
     34 C         142.8170  139.6375  164.9124 C.ar    1  UNL1        0.1010
     35 N         143.1602  140.2299  166.2471 N.ar    1  UNL1       -0.2103
     36 C         142.9170  142.3270  168.7505 C.3     1  UNL1        0.2542
     37 O         142.4612  140.9009  168.6578 O.3     1  UNL1       -0.4561
     38 O         139.0042  138.6884  165.4712 O.3     1  UNL1       -0.4697
     39 C         137.9405  138.8400  166.5179 C.3     1  UNL1        0.2525
@<TRIPOS>BOND
     1    36    37    1
     2    37    26    1
     3    26    27   ar
     4    27    28   ar
     5    28    38    1
     6    38    39    1
     7    28    29   ar
     8    29    30   ar
     9    30    31   ar
    10    31    32   ar
    11    32    33   ar
    12    33    25    1
    13    25    24    1
    14    24     1    1
    15     1     2    1
    16     2     3    1
    17     3     4    1
    18     4     9    1
    19     9    11    1
    20    11    12    1
    21    12    13   ar
    22    13    14   ar
    23    14    15   ar
    24    15    16   ar
    25    16    17   ar
    26    16    18    1
    27    18    19   am
    28    19    20    2
    29    19    21    1
    30    21    22    1
    31     4     5    1
    32     5     6    1
    33     4     7    1
    34     7     8    1
    35    33    34   ar
    36    34    35   ar
    37    35    26   ar
    38    34    29   ar
    39     6     1    1
    40     8     1    1
    41    17    12   ar
    42    22    15    1
    43     9    10    1
    44    18    23    1
@<TRIPOS>MOLECULE
*****
 39 44 0 0 0
SMALL
GASTEIGER

@<TRIPOS>ATOM
      1 C         140.4913  138.1545  160.9755 C.3     1  UNL1        0.0932
      2 C         139.0255  138.2197  161.2868 C.3     1  UNL1        0.0286
      3 C         138.5420  137.9500  162.6809 C.3     1  UNL1        0.0193
      4 C         139.5244  137.6150  163.7637 C.3     1  UNL1        0.0700
      5 C         140.9904  137.5497  163.4525 C.3     1  UNL1        0.0193
      6 C         141.4738  137.8195  162.0584 C.3     1  UNL1        0.0286
      7 C         139.8369  137.7550  163.0149 C.3     1  UNL1        0.1562
      8 O         140.2741  137.9989  161.7543 O.3     1  UNL1       -0.3572
      9 N         139.0410  137.3453  165.1578 N.3     1  UNL1       -0.2926
     10 H         139.8663  137.1417  165.7215 H       1  UNL1        0.1236
     11 C         138.2596  138.3913  165.8962 C.3     1  UNL1        0.1152
     12 C         138.9723  139.5380  166.5496 C.ar    1  UNL1        0.0765
     13 C         139.6716  140.5640  165.7080 C.ar    1  UNL1        0.0193
     14 C         140.3844  141.7107  166.3614 C.ar    1  UNL1        0.0411
     15 C         140.3979  141.8315  167.8565 C.ar    1  UNL1        0.1708
     16 C         139.6986  140.8055  168.6981 C.ar    1  UNL1        0.1682
     17 N         138.9858  139.6588  168.0447 N.ar    1  UNL1       -0.2304
     18 N         139.7120  140.9262  170.1932 N.am    1  UNL1       -0.2639
     19 C         140.4248  142.0730  170.8466 C.2     1  UNL1        0.2718
     20 O         140.4383  142.1937  172.3417 O.2     1  UNL1       -0.2707
     21 C         141.1241  143.0990  170.0050 C.3     1  UNL1        0.2898
     22 O         141.1106  142.9782  168.5099 O.3     1  UNL1       -0.4628
     23 H         139.2531  140.2528  170.7456 H       1  UNL1        0.1565
     24 C         140.9748  138.4242  159.5814 C.3     1  UNL1        0.0319
     25 C         141.4440  139.7977  159.2029 C.3     1  UNL1        0.0304
     26 C         142.2171  142.2750  162.8792 C.ar    1  UNL1        0.2281
     27 C         141.3578  143.4687  163.1735 C.ar    1  UNL1        0.0961
     28 C         140.2409  143.8367  162.2424 C.ar    1  UNL1        0.1623
     29 C         139.9832  143.0109  161.0169 C.ar    1  UNL1        0.1326
     30 N         138.8662  143.3789  160.0858 N.ar    1  UNL1       -0.2393
     31 C         138.6086  142.5532  158.8604 C.ar    1  UNL1        0.0987
     32 C         139.4678  141.3594  158.5661 C.ar    1  UNL1        0.0179
     33 C         140.5848  140.9914  159.4972 C.ar    1  UNL1       -0.0012
     34 C         140.8424  141.8172  160.7226 C.ar    1  UNL1        0.1010
     35 N         141.9594  141.4492  161.6538 N.ar    1  UNL1       -0.2103
     36 C         143.3690  140.5452  164.4384 C.3     1  UNL1        0.2542
     37 O         143.3340  141.9070  163.8104 O.3     1  UNL1       -0.4561
     38 O         139.3816  145.0305  162.5367 O.3     1  UNL1       -0.4697
     39 C         139.6479  146.3349  161.8458 C.3     1  UNL1        0.2525
@<TRIPOS>BOND
     1    36    37    1
     2    37    26    1
     3    26    27   ar
     4    27    28   ar
     5    28    38    1
     6    38    39    1
     7    28    29   ar
     8    29    30   ar
     9    30    31   ar
    10    31    32   ar
    11    32    33   ar
    12    33    25    1
    13    25    24    1
    14    24     1    1
    15     1     2    1
    16     2     3    1
    17     3     4    1
    18     4     9    1
    19     9    11    1
    20    11    12    1
    21    12    13   ar
    22    13    14   ar
    23    14    15   ar
    24    15    16   ar
    25    16    17   ar
    26    16    18    1
    27    18    19   am
    28    19    20    2
    29    19    21    1
    30    21    22    1
    31     4     5    1
    32     5     6    1
    33     4     7    1
    34     7     8    1
    35    33    34   ar
    36    34    35   ar
    37    35    26   ar
    38    34    29   ar
    39     6     1    1
    40     8     1    1
    41    17    12   ar
    42    22    15    1
    43     9    10    1
    44    18    23    1
@<TRIPOS>MOLECULE
*****
 39 44 0 0 0
SMALL
GASTEIGER

@<TRIPOS>ATOM
      1 C         142.3315  144.7824  163.4758 C.3     1  UNL1        0.0932
      2 C         141.0567  144.7444  164.2653 C.3     1  UNL1        0.0286
      3 C         139.7651  144.3940  163.5879 C.3     1  UNL1        0.0193
      4 C         139.7482  144.0815  162.1210 C.3     1  UNL1        0.0700
      5 C         141.0231  144.1194  161.3313 C.3     1  UNL1        0.0193
      6 C         142.3147  144.4698  162.0087 C.3     1  UNL1        0.0286
      7 C         140.4803  144.2681  162.4482 C.3     1  UNL1        0.1562
      8 O         141.6483  144.5850  163.0608 O.3     1  UNL1       -0.3572
      9 N         138.4566  143.7310  161.4436 N.3     1  UNL1       -0.2926
     10 H         138.3141  144.4212  160.7062 H       1  UNL1        0.1236
     11 C         138.2827  142.3813  160.8128 C.3     1  UNL1        0.1152
     12 C         138.3957  141.1419  161.6501 C.ar    1  UNL1        0.0765
     13 C         138.7783  139.8388  161.0132 C.ar    1  UNL1        0.0193
     14 C         138.8914  138.5994  161.8505 C.ar    1  UNL1        0.0411
     15 C         138.6219  138.6631  163.3247 C.ar    1  UNL1        0.1708
     16 C         138.2393  139.9661  163.9616 C.ar    1  UNL1        0.1682
     17 N         138.1263  141.2055  163.1243 N.ar    1  UNL1       -0.2304
     18 N         137.9698  140.0298  165.4359 N.am    1  UNL1       -0.2639
     19 C         138.0829  138.7904  166.2732 C.2     1  UNL1        0.2718
     20 O         137.8134  138.8541  167.7474 O.2     1  UNL1       -0.2707
     21 C         138.4655  137.4873  165.6362 C.3     1  UNL1        0.2898
     22 O         138.7350  137.4237  164.1620 O.3     1  UNL1       -0.4628
     23 H         137.7187  140.8851  165.8539 H       1  UNL1        0.1565
     24 C         143.6231  145.1328  164.1532 C.3     1  UNL1        0.0319
     25 C         144.3545  144.0975  164.9551 C.3     1  UNL1        0.0304
     26 C         141.5868  141.3507  167.2012 C.ar    1  UNL1        0.2281
     27 C         141.4942  139.9030  166.8194 C.ar    1  UNL1        0.0961
     28 C         142.3242  139.3710  165.6889 C.ar    1  UNL1        0.1623
     29 C         143.2468  140.2866  164.9402 C.ar    1  UNL1        0.1326
     30 N         144.0768  139.7545  163.8097 N.ar    1  UNL1       -0.2393
     31 C         144.9994  140.6701  163.0611 C.ar    1  UNL1        0.0987
     32 C         145.0919  142.1177  163.4429 C.ar    1  UNL1        0.0179
     33 C         144.2619  142.6498  164.5733 C.ar    1  UNL1       -0.0012
     34 C         143.3394  141.7342  165.3220 C.ar    1  UNL1        0.1010
     35 N         142.5093  142.2663  166.4525 N.ar    1  UNL1       -0.2103
     36 C         141.1827  141.6469  169.7505 C.3     1  UNL1        0.2542
     37 O         140.7567  141.8827  168.3317 O.3     1  UNL1       -0.4561
     38 O         142.2317  137.9233  165.3072 O.3     1  UNL1       -0.4697
     39 C         142.0195  137.5379  163.8732 C.3     1  UNL1        0.2525
@<TRIPOS>BOND
     1    36    37    1
     2    37    26    1
     3    26    27   ar
     4    27    28   ar
     5    28    38    1
     6    38    39    1
     7    28    29   ar
     8    29    30   ar
     9    30    31   ar
    10    31    32   ar
    11    32    33   ar
    12    33    25    1
    13    25    24    1
    14    24     1    1
    15     1     2    1
    16     2     3    1
    17     3     4    1
    18     4     9    1
    19     9    11    1
    20    11    12    1
    21    12    13   ar
    22    13    14   ar
    23    14    15   ar
    24    15    16   ar
    25    16    17   ar
    26    16    18    1
    27    18    19   am
    28    19    20    2
    29    19    21    1
    30    21    22    1
    31     4     5    1
    32     5     6    1
    33     4     7    1
    34     7     8    1
    35    33    34   ar
    36    34    35   ar
    37    35    26   ar
    38    34    29   ar
    39     6     1    1
    40     8     1    1
    41    17    12   ar
    42    22    15    1
    43     9    10    1
    44    18    23    1
@<TRIPOS>MOLECULE
*****
 39 44 0 0 0
SMALL
GASTEIGER

@<TRIPOS>ATOM
      1 C         144.4336  139.6610  163.8369 C.3     1  UNL1        0.0932
      2 C         144.1550  139.2905  162.4103 C.3     1  UNL1        0.0286
      3 C         142.9870  138.4097  162.0786 C.3     1  UNL1        0.0193
      4 C         142.0978  137.8993  163.1734 C.3     1  UNL1        0.0700
      5 C         142.3764  138.2697  164.6000 C.3     1  UNL1        0.0193
      6 C         143.5443  139.1506  164.9317 C.3     1  UNL1        0.0286
      7 C         142.7258  138.3792  163.4041 C.3     1  UNL1        0.1562
      8 O         143.7819  139.1757  163.7041 O.3     1  UNL1       -0.3572
      9 N         140.9298  137.0185  162.8416 N.3     1  UNL1       -0.2926
     10 H         140.7711  136.4217  163.6535 H       1  UNL1        0.1236
     11 C         139.6063  137.6294  162.4879 C.3     1  UNL1        0.1152
     12 C         139.5255  138.6746  161.4151 C.ar    1  UNL1        0.0765
     13 C         139.3816  138.2659  159.9791 C.ar    1  UNL1        0.0193
     14 C         139.3007  139.3111  158.9062 C.ar    1  UNL1        0.0411
     15 C         139.3638  140.7651  159.2694 C.ar    1  UNL1        0.1708
     16 C         139.5077  141.1738  160.7054 C.ar    1  UNL1        0.1682
     17 N         139.5886  140.1286  161.7782 N.ar    1  UNL1       -0.2304
     18 N         139.5708  142.6278  161.0687 N.am    1  UNL1       -0.2639
     19 C         139.4900  143.6731  159.9959 C.2     1  UNL1        0.2718
     20 O         139.5531  145.1270  160.3590 O.2     1  UNL1       -0.2707
     21 C         139.3460  143.2643  158.5598 C.3     1  UNL1        0.2898
     22 O         139.2830  141.8103  158.1966 O.3     1  UNL1       -0.4628
     23 H         139.6653  142.8961  162.0112 H       1  UNL1        0.1565
     24 C         145.6016  140.5418  164.1686 C.3     1  UNL1        0.0319
     25 C         145.3946  142.0113  164.3868 C.3     1  UNL1        0.0304
     26 C         141.4457  142.5659  166.4721 C.ar    1  UNL1        0.2281
     27 C         140.3232  143.2768  165.7759 C.ar    1  UNL1        0.0961
     28 C         140.5170  143.8027  164.3846 C.ar    1  UNL1        0.1623
     29 C         141.8333  143.6178  163.6894 C.ar    1  UNL1        0.1326
     30 N         142.0271  144.1437  162.2981 N.ar    1  UNL1       -0.2393
     31 C         143.3433  143.9589  161.6030 C.ar    1  UNL1        0.0987
     32 C         144.4658  143.2480  162.2993 C.ar    1  UNL1        0.0179
     33 C         144.2721  142.7221  163.6906 C.ar    1  UNL1       -0.0012
     34 C         142.9558  142.9070  164.3857 C.ar    1  UNL1        0.1010
     35 N         142.7620  142.3811  165.7771 N.ar    1  UNL1       -0.2103
     36 C         140.6673  142.9242  168.9249 C.3     1  UNL1        0.2542
     37 O         141.2519  142.0400  167.8635 O.3     1  UNL1       -0.4561
     38 O         139.3945  144.5135  163.6884 O.3     1  UNL1       -0.4697
     39 C         137.9722  144.2100  164.0557 C.3     1  UNL1        0.2525
@<TRIPOS>BOND
     1    36    37    1
     2    37    26    1
     3    26    27   ar
     4    27    28   ar
     5    28    38    1
     6    38    39    1
     7    28    29   ar
     8    29    30   ar
     9    30    31   ar
    10    31    32   ar
    11    32    33   ar
    12    33    25    1
    13    25    24    1
    14    24     1    1
    15     1     2    1
    16     2     3    1
    17     3     4    1
    18     4     9    1
    19     9    11    1
    20    11    12    1
    21    12    13   ar
    22    13    14   ar
    23    14    15   ar
    24    15    16   ar
    25    16    17   ar
    26    16    18    1
    27    18    19   am
    28    19    20    2
    29    19    21    1
    30    21    22    1
    31     4     5    1
    32     5     6    1
    33     4     7    1
    34     7     8    1
    35    33    34   ar
    36    34    35   ar
    37    35    26   ar
    38    34    29   ar
    39     6     1    1
    40     8     1    1
    41    17    12   ar
    42    22    15    1
    43     9    10    1
    44    18    23    1
@<TRIPOS>MOLECULE
*****
 39 44 0 0 0
SMALL
GASTEIGER

@<TRIPOS>ATOM
      1 C         140.7081  138.1368  160.9385 C.3     1  UNL1        0.0932
      2 C         139.2203  138.2285  161.1054 C.3     1  UNL1        0.0286
      3 C         138.5958  137.9400  162.4383 C.3     1  UNL1        0.0193
      4 C         139.4592  137.5597  163.6045 C.3     1  UNL1        0.0700
      5 C         140.9471  137.4680  163.4377 C.3     1  UNL1        0.0193
      6 C         141.5716  137.7565  162.1047 C.3     1  UNL1        0.0286
      7 C         139.8470  137.7086  162.8936 C.3     1  UNL1        0.1562
      8 O         140.4117  137.9695  161.6883 O.3     1  UNL1       -0.3572
      9 N         138.8347  137.2712  164.9374 N.3     1  UNL1       -0.2926
     10 H         139.5187  136.7373  165.4736 H       1  UNL1        0.1236
     11 C         138.3834  138.4012  165.8146 C.3     1  UNL1        0.1152
     12 C         138.9442  139.7776  165.6125 C.ar    1  UNL1        0.0765
     13 C         140.1365  140.2254  166.4048 C.ar    1  UNL1        0.0193
     14 C         140.6973  141.6019  166.2027 C.ar    1  UNL1        0.0411
     15 C         140.0658  142.5305  165.2084 C.ar    1  UNL1        0.1708
     16 C         138.8735  142.0827  164.4161 C.ar    1  UNL1        0.1682
     17 N         138.3127  140.7063  164.6181 N.ar    1  UNL1       -0.2304
     18 N         138.2419  143.0114  163.4217 N.am    1  UNL1       -0.2639
     19 C         138.8028  144.3878  163.2196 C.2     1  UNL1        0.2718
     20 O         138.1713  145.3165  162.2252 O.2     1  UNL1       -0.2707
     21 C         139.9951  144.8356  164.0120 C.3     1  UNL1        0.2898
     22 O         140.6266  143.9070  165.0063 O.3     1  UNL1       -0.4628
     23 H         137.4594  142.7174  162.9016 H       1  UNL1        0.1565
     24 C         141.3326  138.4253  159.6056 C.3     1  UNL1        0.0319
     25 C         142.6710  139.0988  159.5344 C.3     1  UNL1        0.0304
     26 C         144.7011  140.7596  163.1909 C.ar    1  UNL1        0.2281
     27 C         144.8050  142.2438  163.3820 C.ar    1  UNL1        0.0961
     28 C         144.2323  143.1743  162.3544 C.ar    1  UNL1        0.1623
     29 C         143.5556  142.6207  161.1355 C.ar    1  UNL1        0.1326
     30 N         142.9828  143.5512  160.1078 N.ar    1  UNL1       -0.2393
     31 C         142.3062  142.9975  158.8890 C.ar    1  UNL1        0.0987
     32 C         142.2022  141.5134  158.6979 C.ar    1  UNL1        0.0179
     33 C         142.7749  140.5829  159.7255 C.ar    1  UNL1       -0.0012
     34 C         143.4516  141.1365  160.9443 C.ar    1  UNL1        0.1010
     35 N         144.0244  140.2060  161.9721 N.ar    1  UNL1       -0.2103
     36 C         144.3598  139.0502  165.1174 C.3     1  UNL1        0.2542
     37 O         145.2738  139.8291  164.2186 O.3     1  UNL1       -0.4561
     38 O         144.3363  144.6584  162.5455 O.3     1  UNL1       -0.4697
     39 C         143.7306  145.3028  163.7571 C.3     1  UNL1        0.2525
@<TRIPOS>BOND
     1    36    37    1
     2    37    26    1
     3    26    27   ar
     4    27    28   ar
     5    28    38    1
     6    38    39    1
     7    28    29   ar
     8    29    30   ar
     9    30    31   ar
    10    31    32   ar
    11    32    33   ar
    12    33    25    1
    13    25    24    1
    14    24     1    1
    15     1     2    1
    16     2     3    1
    17     3     4    1
    18     4     9    1
    19     9    11    1
    20    11    12    1
    21    12    13   ar
    22    13    14   ar
    23    14    15   ar
    24    15    16   ar
    25    16    17   ar
    26    16    18    1
    27    18    19   am
    28    19    20    2
    29    19    21    1
    30    21    22    1
    31     4     5    1
    32     5     6    1
    33     4     7    1
    34     7     8    1
    35    33    34   ar
    36    34    35   ar
    37    35    26   ar
    38    34    29   ar
    39     6     1    1
    40     8     1    1
    41    17    12   ar
    42    22    15    1
    43     9    10    1
    44    18    23    1
