@<TRIPOS>MOLECULE
*****
 40 43 0 0 0
SMALL
GASTEIGER

@<TRIPOS>ATOM
      1 C         141.8544  145.3272  158.2604 C.3     1  UNL1        0.1459
      2 O         142.4798  146.5029  157.5702 O.3     1  UNL1       -0.3813
      3 H         142.3873  147.2916  158.1273 H       1  UNL1        0.2105
      4 C         141.8645  143.9790  157.6030 C.3     1  UNL1        0.1034
      5 C         143.3863  140.3905  159.8517 C.3     1  UNL1        0.1687
      6 C         144.3390  141.4676  159.4250 C.3     1  UNL1        0.0609
      7 C         143.8317  142.6638  158.6754 C.3     1  UNL1        0.0759
      8 N         142.3717  142.7828  158.3525 N.3     1  UNL1       -0.2704
      9 C         141.4190  141.7057  158.7792 C.3     1  UNL1        0.0759
     10 C         141.9262  140.5095  159.5287 C.3     1  UNL1        0.0609
     11 O         143.8935  139.1943  160.6012 O.3     1  UNL1       -0.4782
     12 C         141.2604  137.4387  164.7225 C.3     1  UNL1        0.0329
     13 C         142.3973  138.2314  164.1486 C.ar    1  UNL1        0.0023
     14 C         143.3542  138.9391  165.0615 C.ar    1  UNL1        0.0547
     15 CL        143.1745  138.8540  166.5483 Cl      1  UNL1       -0.0825
     16 C         144.4910  139.7318  164.4876 C.ar    1  UNL1        0.0142
     17 C         144.6707  139.8169  163.0009 C.ar    1  UNL1        0.0386
     18 C         143.7137  139.1092  162.0880 C.ar    1  UNL1        0.1485
     19 C         142.5770  138.3165  162.6619 C.ar    1  UNL1        0.0884
     20 CL        141.6199  137.6088  161.7490 Cl      1  UNL1       -0.0794
     21 C         141.2188  145.4996  159.6082 C.3     1  UNL1        0.1204
     22 N         141.7851  144.7880  160.8010 N.am    1  UNL1       -0.2985
     23 C         141.2401  145.0682  162.1701 C.2     1  UNL1        0.2469
     24 O         140.1287  146.0601  162.3464 O.2     1  UNL1       -0.2701
     25 H         142.5146  144.1370  160.6853 H       1  UNL1        0.1498
     26 C         141.8064  144.3565  163.3629 C.2     1  UNL1        0.0665
     27 C         143.1440  144.7578  163.9104 C.2     1  UNL1        0.0931
     28 N         143.7103  144.0461  165.1032 N.am    1  UNL1       -0.1740
     29 C         142.9390  142.9332  165.7486 C.2     1  UNL1        0.2688
     30 O         143.5054  142.2216  166.9414 O.2     1  UNL1       -0.2680
     31 C         141.6014  142.5319  165.2011 C.2     1  UNL1        0.0532
     32 C         140.8301  141.4190  165.8464 C.2     1  UNL1        0.0223
     33 C         139.4925  141.0177  165.2989 C.2     1  UNL1        0.1019
     34 C         138.9262  141.7294  164.1061 C.2     1  UNL1       -0.0031
     35 C         139.6975  142.8423  163.4608 C.3     1  UNL1        0.0540
     36 C         141.0351  143.2436  164.0083 C.2     1  UNL1       -0.0076
     37 S         138.7212  139.9048  165.9443 S.O2    1  UNL1        0.0102
     38 C         137.9499  138.7919  166.5896 C.3     1  UNL1        0.1816
     39 O         137.9947  139.6605  164.6549 O.2     1  UNL1       -0.1686
     40 O         139.4476  140.1490  167.2337 O.2     1  UNL1       -0.1686
@<TRIPOS>BOND
     1    12    13    1
     2    13    14   ar
     3    14    15    1
     4    14    16   ar
     5    16    17   ar
     6    17    18   ar
     7    18    11    1
     8    11     5    1
     9     5     6    1
    10     6     7    1
    11     7     8    1
    12     8     4    1
    13     4     1    1
    14     1     2    1
    15     1    21    1
    16    21    22    1
    17    22    23   am
    18    23    24    2
    19    23    26    1
    20    26    27    1
    21    27    28    2
    22    28    29    1
    23    29    30    2
    24    29    31    1
    25    31    32    2
    26    32    33    1
    27    33    37    1
    28    37    38    1
    29    37    39    2
    30    37    40    2
    31    33    34    2
    32    34    35    1
    33    35    36    1
    34     8     9    1
    35     9    10    1
    36    18    19   ar
    37    19    20    1
    38    19    13   ar
    39    10     5    1
    40    36    26    2
    41    36    31    1
    42     2     3    1
    43    22    25    1
@<TRIPOS>MOLECULE
*****
 40 43 0 0 0
SMALL
GASTEIGER

@<TRIPOS>ATOM
      1 C         139.9321  146.1080  161.0087 C.3     1  UNL1        0.1459
      2 O         138.9682  147.2178  160.7104 O.3     1  UNL1       -0.3813
      3 H         138.6182  147.5743  161.5418 H       1  UNL1        0.2105
      4 C         140.6161  145.3864  159.8855 C.3     1  UNL1        0.1034
      5 C         142.6111  141.4242  160.6409 C.3     1  UNL1        0.1687
      6 C         141.1741  141.4710  160.2134 C.3     1  UNL1        0.0609
      7 C         140.5091  142.7918  159.9616 C.3     1  UNL1        0.0759
      8 N         141.2811  144.0657  160.1373 N.3     1  UNL1       -0.2704
      9 C         142.7181  144.0190  160.5649 C.3     1  UNL1        0.0759
     10 C         143.3831  142.6983  160.8166 C.3     1  UNL1        0.0609
     11 O         143.2761  140.1035  160.8927 O.3     1  UNL1       -0.4782
     12 C         141.4963  137.2714  164.8690 C.3     1  UNL1        0.0329
     13 C         142.5373  138.1792  164.2840 C.ar    1  UNL1        0.0023
     14 C         143.7293  138.5788  165.1022 C.ar    1  UNL1        0.0547
     15 CL        143.8804  138.0705  166.5053 Cl      1  UNL1       -0.0825
     16 C         144.7703  139.4866  164.5172 C.ar    1  UNL1        0.0142
     17 C         144.6192  139.9948  163.1140 C.ar    1  UNL1        0.0386
     18 C         143.4272  139.5953  162.2958 C.ar    1  UNL1        0.1485
     19 C         142.3862  138.6875  162.8809 C.ar    1  UNL1        0.0884
     20 CL        141.1941  138.2879  162.0627 Cl      1  UNL1       -0.0794
     21 C         140.2121  145.7196  162.4303 C.3     1  UNL1        0.1204
     22 N         140.1152  144.2823  162.8481 N.am    1  UNL1       -0.2985
     23 C         138.7728  143.6661  163.1096 C.2     1  UNL1        0.2469
     24 O         137.5273  144.4873  162.9533 O.2     1  UNL1       -0.2701
     25 H         140.9326  143.7433  162.9507 H       1  UNL1        0.1498
     26 C         138.6759  142.2287  163.5274 C.2     1  UNL1        0.0665
     27 C         138.0620  141.2190  162.6037 C.2     1  UNL1        0.0931
     28 N         137.9651  139.7816  163.0215 N.am    1  UNL1       -0.1740
     29 C         138.4821  139.3540  164.3630 C.2     1  UNL1        0.2688
     30 O         138.3851  137.9166  164.7809 O.2     1  UNL1       -0.2680
     31 C         139.0960  140.3638  165.2869 C.2     1  UNL1        0.0532
     32 C         139.6130  139.9362  166.6284 C.2     1  UNL1        0.0223
     33 C         140.2269  140.9460  167.5522 C.2     1  UNL1        0.1019
     34 C         140.3239  142.3834  167.1344 C.2     1  UNL1       -0.0031
     35 C         139.8069  142.8110  165.7928 C.3     1  UNL1        0.0540
     36 C         139.1930  141.8012  164.8691 C.2     1  UNL1       -0.0076
     37 S         140.7440  140.5185  168.8939 S.O2    1  UNL1        0.0102
     38 C         141.2609  140.0909  170.2354 C.3     1  UNL1        0.1816
     39 O         142.0422  141.2167  168.6161 O.2     1  UNL1       -0.1686
     40 O         139.4458  139.8203  169.1716 O.2     1  UNL1       -0.1686
@<TRIPOS>BOND
     1    12    13    1
     2    13    14   ar
     3    14    15    1
     4    14    16   ar
     5    16    17   ar
     6    17    18   ar
     7    18    11    1
     8    11     5    1
     9     5     6    1
    10     6     7    1
    11     7     8    1
    12     8     4    1
    13     4     1    1
    14     1     2    1
    15     1    21    1
    16    21    22    1
    17    22    23   am
    18    23    24    2
    19    23    26    1
    20    26    27    1
    21    27    28    2
    22    28    29    1
    23    29    30    2
    24    29    31    1
    25    31    32    2
    26    32    33    1
    27    33    37    1
    28    37    38    1
    29    37    39    2
    30    37    40    2
    31    33    34    2
    32    34    35    1
    33    35    36    1
    34     8     9    1
    35     9    10    1
    36    18    19   ar
    37    19    20    1
    38    19    13   ar
    39    10     5    1
    40    36    26    2
    41    36    31    1
    42     2     3    1
    43    22    25    1
@<TRIPOS>MOLECULE
*****
 40 43 0 0 0
SMALL
GASTEIGER

@<TRIPOS>ATOM
      1 C         141.6685  145.1067  158.1992 C.3     1  UNL1        0.1459
      2 O         142.5400  146.2924  157.9084 O.3     1  UNL1       -0.3813
      3 H         142.2125  147.0625  158.3989 H       1  UNL1        0.2105
      4 C         141.9647  143.7830  157.5588 C.3     1  UNL1        0.1034
      5 C         143.6691  140.4239  160.0207 C.3     1  UNL1        0.1687
      6 C         144.1587  141.8269  160.2252 C.3     1  UNL1        0.0609
      7 C         143.5905  142.9466  159.4046 C.3     1  UNL1        0.0759
      8 N         142.5328  142.6633  158.3794 N.3     1  UNL1       -0.2704
      9 C         142.0433  141.2603  158.1749 C.3     1  UNL1        0.0759
     10 C         142.6114  140.1406  158.9955 C.3     1  UNL1        0.0609
     11 O         144.2373  139.3042  160.8413 O.3     1  UNL1       -0.4782
     12 C         141.1116  137.3686  164.5134 C.3     1  UNL1        0.0329
     13 C         142.2977  138.1998  164.1228 C.ar    1  UNL1        0.0023
     14 C         143.1068  138.8944  165.1777 C.ar    1  UNL1        0.0547
     15 CL        142.7300  138.7578  166.6231 Cl      1  UNL1       -0.0825
     16 C         144.2928  139.7255  164.7871 C.ar    1  UNL1        0.0142
     17 C         144.6696  139.8621  163.3416 C.ar    1  UNL1        0.0386
     18 C         143.8605  139.1676  162.2867 C.ar    1  UNL1        0.1485
     19 C         142.6745  138.3364  162.6773 C.ar    1  UNL1        0.0884
     20 CL        141.8652  137.6418  161.6224 Cl      1  UNL1       -0.0794
     21 C         140.5006  145.2448  159.1304 C.3     1  UNL1        0.1204
     22 N         140.1309  144.1129  160.0427 N.am    1  UNL1       -0.2985
     23 C         139.4648  144.3956  161.3566 C.2     1  UNL1        0.2469
     24 O         139.1682  145.8101  161.7582 O.2     1  UNL1       -0.2701
     25 H         140.3256  143.1845  159.7791 H       1  UNL1        0.1498
     26 C         139.0951  143.2637  162.2689 C.2     1  UNL1        0.0665
     27 C         137.9137  142.3970  161.9480 C.2     1  UNL1        0.0931
     28 N         137.5441  141.2651  162.8604 N.am    1  UNL1       -0.1740
     29 C         138.3559  141.0000  164.0935 C.2     1  UNL1        0.2688
     30 O         137.9863  139.8682  165.0058 O.2     1  UNL1       -0.2680
     31 C         139.5374  141.8668  164.4144 C.2     1  UNL1        0.0532
     32 C         140.3491  141.6017  165.6476 C.2     1  UNL1        0.0223
     33 C         141.5305  142.4685  165.9684 C.2     1  UNL1        0.1019
     34 C         141.9002  143.6003  165.0561 C.2     1  UNL1       -0.0031
     35 C         141.0884  143.8654  163.8229 C.3     1  UNL1        0.0540
     36 C         139.9070  142.9987  163.5021 C.2     1  UNL1       -0.0076
     37 S         142.3424  142.2034  167.2016 S.O2    1  UNL1        0.0102
     38 C         143.1541  141.9384  168.4348 C.3     1  UNL1        0.1816
     39 O         143.5802  142.6529  166.4834 O.2     1  UNL1       -0.1686
     40 O         141.1046  141.7540  167.9198 O.2     1  UNL1       -0.1686
@<TRIPOS>BOND
     1    12    13    1
     2    13    14   ar
     3    14    15    1
     4    14    16   ar
     5    16    17   ar
     6    17    18   ar
     7    18    11    1
     8    11     5    1
     9     5     6    1
    10     6     7    1
    11     7     8    1
    12     8     4    1
    13     4     1    1
    14     1     2    1
    15     1    21    1
    16    21    22    1
    17    22    23   am
    18    23    24    2
    19    23    26    1
    20    26    27    1
    21    27    28    2
    22    28    29    1
    23    29    30    2
    24    29    31    1
    25    31    32    2
    26    32    33    1
    27    33    37    1
    28    37    38    1
    29    37    39    2
    30    37    40    2
    31    33    34    2
    32    34    35    1
    33    35    36    1
    34     8     9    1
    35     9    10    1
    36    18    19   ar
    37    19    20    1
    38    19    13   ar
    39    10     5    1
    40    36    26    2
    41    36    31    1
    42     2     3    1
    43    22    25    1
@<TRIPOS>MOLECULE
*****
 40 43 0 0 0
SMALL
GASTEIGER

@<TRIPOS>ATOM
      1 C         144.4197  142.1824  158.6062 C.3     1  UNL1        0.1459
      2 O         144.7634  143.2183  157.5773 O.3     1  UNL1       -0.3813
      3 H         145.0394  144.0355  158.0209 H       1  UNL1        0.2105
      4 C         143.9609  140.8208  158.1756 C.3     1  UNL1        0.1034
      5 C         140.5221  138.8320  160.2896 C.3     1  UNL1        0.1687
      6 C         140.2574  139.8542  159.2242 C.3     1  UNL1        0.0609
      7 C         141.4038  140.5171  158.5195 C.3     1  UNL1        0.0759
      8 N         142.8147  140.1578  158.8803 N.3     1  UNL1       -0.2704
      9 C         143.0794  139.1357  159.9457 C.3     1  UNL1        0.0759
     10 C         141.9332  138.4728  160.6503 C.3     1  UNL1        0.0609
     11 O         139.3759  138.1691  160.9943 O.3     1  UNL1       -0.4782
     12 C         137.7113  141.3629  164.7398 C.3     1  UNL1        0.0329
     13 C         138.2931  140.0458  164.3193 C.ar    1  UNL1        0.0023
     14 C         138.6244  139.0086  165.3510 C.ar    1  UNL1        0.0547
     15 CL        138.3739  139.2884  166.8032 Cl      1  UNL1       -0.0825
     16 C         139.2061  137.6915  164.9304 C.ar    1  UNL1        0.0142
     17 C         139.4567  137.4117  163.4782 C.ar    1  UNL1        0.0386
     18 C         139.1254  138.4489  162.4465 C.ar    1  UNL1        0.1485
     19 C         138.5436  139.7659  162.8671 C.ar    1  UNL1        0.0884
     20 CL        138.2123  140.8032  161.8354 Cl      1  UNL1       -0.0794
     21 C         144.5347  142.5082  160.0660 C.3     1  UNL1        0.1204
     22 N         143.2997  142.7753  160.8744 N.am    1  UNL1       -0.2985
     23 C         143.3375  143.7724  161.9943 C.2     1  UNL1        0.2469
     24 O         144.6103  144.5025  162.3058 O.2     1  UNL1       -0.2701
     25 H         142.4644  142.2961  160.6699 H       1  UNL1        0.1498
     26 C         142.1025  144.0394  162.8027 C.2     1  UNL1        0.0665
     27 C         141.0556  144.9802  162.2842 C.2     1  UNL1        0.0931
     28 N         139.8207  145.2473  163.0926 N.am    1  UNL1       -0.1740
     29 C         139.6326  144.5736  164.4195 C.2     1  UNL1        0.2688
     30 O         138.3976  144.8406  165.2279 O.2     1  UNL1       -0.2680
     31 C         140.6796  143.6328  164.9381 C.2     1  UNL1        0.0532
     32 C         140.4915  142.9591  166.2650 C.2     1  UNL1        0.0223
     33 C         141.5385  142.0183  166.7835 C.2     1  UNL1        0.1019
     34 C         142.7734  141.7513  165.9751 C.2     1  UNL1       -0.0031
     35 C         142.9615  142.4249  164.6482 C.3     1  UNL1        0.0540
     36 C         141.9145  143.3657  164.1297 C.2     1  UNL1       -0.0076
     37 S         141.3504  141.3446  168.1105 S.O2    1  UNL1        0.0102
     38 C         141.1625  140.6708  169.4374 C.3     1  UNL1        0.1816
     39 O         140.2740  142.3296  168.4582 O.2     1  UNL1       -0.1686
     40 O         142.4268  140.3595  167.7628 O.2     1  UNL1       -0.1686
@<TRIPOS>BOND
     1    12    13    1
     2    13    14   ar
     3    14    15    1
     4    14    16   ar
     5    16    17   ar
     6    17    18   ar
     7    18    11    1
     8    11     5    1
     9     5     6    1
    10     6     7    1
    11     7     8    1
    12     8     4    1
    13     4     1    1
    14     1     2    1
    15     1    21    1
    16    21    22    1
    17    22    23   am
    18    23    24    2
    19    23    26    1
    20    26    27    1
    21    27    28    2
    22    28    29    1
    23    29    30    2
    24    29    31    1
    25    31    32    2
    26    32    33    1
    27    33    37    1
    28    37    38    1
    29    37    39    2
    30    37    40    2
    31    33    34    2
    32    34    35    1
    33    35    36    1
    34     8     9    1
    35     9    10    1
    36    18    19   ar
    37    19    20    1
    38    19    13   ar
    39    10     5    1
    40    36    26    2
    41    36    31    1
    42     2     3    1
    43    22    25    1
@<TRIPOS>MOLECULE
*****
 40 43 0 0 0
SMALL
GASTEIGER

@<TRIPOS>ATOM
      1 C         140.2149  144.4626  157.9473 C.3     1  UNL1        0.1459
      2 O         140.7486  144.9425  156.6303 O.3     1  UNL1       -0.3813
      3 H         141.2496  145.7624  156.7638 H       1  UNL1        0.2105
      4 C         139.3999  143.2050  158.0129 C.3     1  UNL1        0.1034
      5 C         141.0825  139.5343  159.9990 C.3     1  UNL1        0.1687
      6 C         139.9307  140.2640  160.6242 C.3     1  UNL1        0.0609
      7 C         139.3698  141.4876  159.9621 C.3     1  UNL1        0.0759
      8 N         139.9607  141.9815  158.6749 N.3     1  UNL1       -0.2704
      9 C         141.1126  141.2517  158.0498 C.3     1  UNL1        0.0759
     10 C         141.6734  140.0282  158.7118 C.3     1  UNL1        0.0609
     11 O         141.6433  138.3108  160.6610 O.3     1  UNL1       -0.4782
     12 C         144.9940  139.7182  164.3749 C.3     1  UNL1        0.0329
     13 C         143.7109  139.0578  163.9651 C.ar    1  UNL1        0.0023
     14 C         142.8203  138.4408  165.0025 C.ar    1  UNL1        0.0547
     15 CL        143.2127  138.4842  166.4496 Cl      1  UNL1       -0.0825
     16 C         141.5374  137.7805  164.5927 C.ar    1  UNL1        0.0142
     17 C         141.1451  137.7372  163.1455 C.ar    1  UNL1        0.0386
     18 C         142.0357  138.3541  162.1082 C.ar    1  UNL1        0.1485
     19 C         143.3186  139.0144  162.5180 C.ar    1  UNL1        0.0884
     20 CL        144.2093  139.6314  161.4806 Cl      1  UNL1       -0.0794
     21 C         140.4962  145.2402  159.1989 C.3     1  UNL1        0.1204
     22 N         141.1890  144.5786  160.3531 N.am    1  UNL1       -0.2985
     23 C         140.9429  145.0609  161.7520 C.2     1  UNL1        0.2469
     24 O         140.0040  146.2049  161.9966 O.2     1  UNL1       -0.2701
     25 H         141.8052  143.8278  160.1926 H       1  UNL1        0.1498
     26 C         141.6357  144.3993  162.9062 C.2     1  UNL1        0.0665
     27 C         143.0165  144.8327  163.3006 C.2     1  UNL1        0.0931
     28 N         143.7093  144.1711  164.4548 N.am    1  UNL1       -0.1740
     29 C         143.0213  143.0761  165.2147 C.2     1  UNL1        0.2688
     30 O         143.7141  142.4145  166.3690 O.2     1  UNL1       -0.2680
     31 C         141.6405  142.6426  164.8204 C.2     1  UNL1        0.0532
     32 C         140.9525  141.5475  165.5803 C.2     1  UNL1        0.0223
     33 C         139.5717  141.1140  165.1859 C.2     1  UNL1        0.1019
     34 C         138.8789  141.7757  164.0317 C.2     1  UNL1       -0.0031
     35 C         139.5669  142.8707  163.2718 C.3     1  UNL1        0.0540
     36 C         140.9477  143.3042  163.6661 C.2     1  UNL1       -0.0076
     37 S         138.8837  140.0189  165.9459 S.O2    1  UNL1        0.0102
     38 C         138.1957  138.9239  166.7058 C.3     1  UNL1        0.1816
     39 O         138.1919  139.5813  164.6890 O.2     1  UNL1       -0.1686
     40 O         139.5755  140.4566  167.2028 O.2     1  UNL1       -0.1686
@<TRIPOS>BOND
     1    12    13    1
     2    13    14   ar
     3    14    15    1
     4    14    16   ar
     5    16    17   ar
     6    17    18   ar
     7    18    11    1
     8    11     5    1
     9     5     6    1
    10     6     7    1
    11     7     8    1
    12     8     4    1
    13     4     1    1
    14     1     2    1
    15     1    21    1
    16    21    22    1
    17    22    23   am
    18    23    24    2
    19    23    26    1
    20    26    27    1
    21    27    28    2
    22    28    29    1
    23    29    30    2
    24    29    31    1
    25    31    32    2
    26    32    33    1
    27    33    37    1
    28    37    38    1
    29    37    39    2
    30    37    40    2
    31    33    34    2
    32    34    35    1
    33    35    36    1
    34     8     9    1
    35     9    10    1
    36    18    19   ar
    37    19    20    1
    38    19    13   ar
    39    10     5    1
    40    36    26    2
    41    36    31    1
    42     2     3    1
    43    22    25    1
@<TRIPOS>MOLECULE
*****
 40 43 0 0 0
SMALL
GASTEIGER

@<TRIPOS>ATOM
      1 C         141.3443  145.4287  157.5186 C.3     1  UNL1        0.1459
      2 O         141.4069  146.6727  156.6829 O.3     1  UNL1       -0.3813
      3 H         142.3144  146.8046  156.3668 H       1  UNL1        0.2105
      4 C         140.0432  145.0003  158.1297 C.3     1  UNL1        0.1034
      5 C         139.6674  144.6392  162.5994 C.3     1  UNL1        0.1687
      6 C         139.4249  143.4431  161.7273 C.3     1  UNL1        0.0609
      7 C         139.5502  143.5635  160.2374 C.3     1  UNL1        0.0759
      8 N         139.9179  144.8800  159.6196 N.3     1  UNL1       -0.2704
      9 C         140.1604  146.0761  160.4917 C.3     1  UNL1        0.0759
     10 C         140.0352  145.9557  161.9816 C.3     1  UNL1        0.0609
     11 O         139.5422  144.5189  164.0893 O.3     1  UNL1       -0.4782
     12 C         138.8237  139.7734  166.0803 C.3     1  UNL1        0.0329
     13 C         139.7244  140.9367  165.7877 C.ar    1  UNL1        0.0023
     14 C         141.1664  140.8905  166.1980 C.ar    1  UNL1        0.0547
     15 CL        141.7078  139.6810  166.9010 Cl      1  UNL1       -0.0825
     16 C         142.0670  142.0538  165.9055 C.ar    1  UNL1        0.0142
     17 C         141.5256  143.2632  165.2026 C.ar    1  UNL1        0.0386
     18 C         140.0836  143.3094  164.7922 C.ar    1  UNL1        0.1485
     19 C         139.1830  142.1461  165.0848 C.ar    1  UNL1        0.0884
     20 CL        137.7409  142.1923  164.6744 Cl      1  UNL1       -0.0794
     21 C         142.5830  144.6129  157.7432 C.3     1  UNL1        0.1204
     22 N         142.8102  143.9429  159.0659 N.am    1  UNL1       -0.2985
     23 C         143.7216  142.7552  159.1582 C.2     1  UNL1        0.2469
     24 O         144.4060  142.2375  157.9279 O.2     1  UNL1       -0.2701
     25 H         142.3610  144.2827  159.8734 H       1  UNL1        0.1498
     26 C         143.9488  142.0852  160.4809 C.2     1  UNL1        0.0665
     27 C         145.2048  142.3582  161.2541 C.2     1  UNL1        0.0931
     28 N         145.4319  141.6882  162.5767 N.am    1  UNL1       -0.1740
     29 C         144.4031  140.7451  163.1262 C.2     1  UNL1        0.2688
     30 O         144.6302  140.0751  164.4489 O.2     1  UNL1       -0.2680
     31 C         143.1470  140.4720  162.3531 C.2     1  UNL1        0.0532
     32 C         142.1181  139.5290  162.9026 C.2     1  UNL1        0.0223
     33 C         140.8621  139.2559  162.1295 C.2     1  UNL1        0.1019
     34 C         140.6349  139.9260  160.8068 C.2     1  UNL1       -0.0031
     35 C         141.6638  140.8690  160.2573 C.3     1  UNL1        0.0540
     36 C         142.9198  141.1421  161.0304 C.2     1  UNL1       -0.0076
     37 S         139.8331  138.3128  162.6790 S.O2    1  UNL1        0.0102
     38 C         138.8043  137.3697  163.2285 C.3     1  UNL1        0.1816
     39 O         138.8253  139.4236  162.6985 O.2     1  UNL1       -0.1686
     40 O         140.8409  137.2020  162.6595 O.2     1  UNL1       -0.1686
@<TRIPOS>BOND
     1    12    13    1
     2    13    14   ar
     3    14    15    1
     4    14    16   ar
     5    16    17   ar
     6    17    18   ar
     7    18    11    1
     8    11     5    1
     9     5     6    1
    10     6     7    1
    11     7     8    1
    12     8     4    1
    13     4     1    1
    14     1     2    1
    15     1    21    1
    16    21    22    1
    17    22    23   am
    18    23    24    2
    19    23    26    1
    20    26    27    1
    21    27    28    2
    22    28    29    1
    23    29    30    2
    24    29    31    1
    25    31    32    2
    26    32    33    1
    27    33    37    1
    28    37    38    1
    29    37    39    2
    30    37    40    2
    31    33    34    2
    32    34    35    1
    33    35    36    1
    34     8     9    1
    35     9    10    1
    36    18    19   ar
    37    19    20    1
    38    19    13   ar
    39    10     5    1
    40    36    26    2
    41    36    31    1
    42     2     3    1
    43    22    25    1
@<TRIPOS>MOLECULE
*****
 40 43 0 0 0
SMALL
GASTEIGER

@<TRIPOS>ATOM
      1 C         142.4099  143.8658  157.3105 C.3     1  UNL1        0.1459
      2 O         142.9308  144.9821  156.4547 O.3     1  UNL1       -0.3813
      3 H         143.5965  145.4852  156.9494 H       1  UNL1        0.2105
      4 C         141.3633  142.9349  156.7737 C.3     1  UNL1        0.1034
      5 C         138.4800  140.9289  159.5866 C.3     1  UNL1        0.1687
      6 C         139.5733  140.1318  158.9390 C.3     1  UNL1        0.0609
      7 C         140.5344  140.8005  158.0013 C.3     1  UNL1        0.0759
      8 N         140.4022  142.2663  157.7113 N.3     1  UNL1       -0.2704
      9 C         139.3089  143.0633  158.3589 C.3     1  UNL1        0.0759
     10 C         138.3478  142.3947  159.2965 C.3     1  UNL1        0.0609
     11 O         137.5189  140.2602  160.5242 O.3     1  UNL1       -0.4782
     12 C         139.3747  137.6523  164.6175 C.3     1  UNL1        0.0329
     13 C         138.7541  138.8887  164.0374 C.ar    1  UNL1        0.0023
     14 C         138.4408  140.0573  164.9241 C.ar    1  UNL1        0.0547
     15 CL        138.7481  139.9897  166.3907 Cl      1  UNL1       -0.0825
     16 C         137.8202  141.2936  164.3440 C.ar    1  UNL1        0.0142
     17 C         137.5129  141.3612  162.8774 C.ar    1  UNL1        0.0386
     18 C         137.8262  140.1926  161.9908 C.ar    1  UNL1        0.1485
     19 C         138.4468  138.9563  162.5708 C.ar    1  UNL1        0.0884
     20 CL        138.7601  137.7876  161.6842 Cl      1  UNL1       -0.0794
     21 C         142.9355  143.6803  158.7031 C.3     1  UNL1        0.1204
     22 N         142.1401  144.1707  159.8765 N.am    1  UNL1       -0.2985
     23 C         141.7142  143.2109  160.9477 C.2     1  UNL1        0.2469
     24 O         142.0838  141.7607  160.8455 O.2     1  UNL1       -0.2701
     25 H         141.8975  145.1225  159.9436 H       1  UNL1        0.1498
     26 C         140.9187  143.7013  162.1210 C.2     1  UNL1        0.0665
     27 C         139.8616  144.7474  161.9260 C.2     1  UNL1        0.0931
     28 N         139.0661  145.2377  163.0993 N.am    1  UNL1       -0.1740
     29 C         139.3278  144.6820  164.4677 C.2     1  UNL1        0.2688
     30 O         138.5323  145.1724  165.6411 O.2     1  UNL1       -0.2680
     31 C         140.3850  143.6358  164.6629 C.2     1  UNL1        0.0532
     32 C         140.6466  143.0801  166.0313 C.2     1  UNL1        0.0223
     33 C         141.7038  142.0340  166.2264 C.2     1  UNL1        0.1019
     34 C         142.4992  141.5437  165.0530 C.2     1  UNL1       -0.0031
     35 C         142.2376  142.0994  163.6846 C.3     1  UNL1        0.0540
     36 C         141.1804  143.1455  163.4895 C.2     1  UNL1       -0.0076
     37 S         141.9655  141.4782  167.5948 S.O2    1  UNL1        0.0102
     38 C         142.2272  140.9224  168.9632 C.3     1  UNL1        0.1816
     39 O         140.9836  142.4509  168.1777 O.2     1  UNL1       -0.1686
     40 O         142.9474  140.5056  167.0120 O.2     1  UNL1       -0.1686
@<TRIPOS>BOND
     1    12    13    1
     2    13    14   ar
     3    14    15    1
     4    14    16   ar
     5    16    17   ar
     6    17    18   ar
     7    18    11    1
     8    11     5    1
     9     5     6    1
    10     6     7    1
    11     7     8    1
    12     8     4    1
    13     4     1    1
    14     1     2    1
    15     1    21    1
    16    21    22    1
    17    22    23   am
    18    23    24    2
    19    23    26    1
    20    26    27    1
    21    27    28    2
    22    28    29    1
    23    29    30    2
    24    29    31    1
    25    31    32    2
    26    32    33    1
    27    33    37    1
    28    37    38    1
    29    37    39    2
    30    37    40    2
    31    33    34    2
    32    34    35    1
    33    35    36    1
    34     8     9    1
    35     9    10    1
    36    18    19   ar
    37    19    20    1
    38    19    13   ar
    39    10     5    1
    40    36    26    2
    41    36    31    1
    42     2     3    1
    43    22    25    1
@<TRIPOS>MOLECULE
*****
 40 43 0 0 0
SMALL
GASTEIGER

@<TRIPOS>ATOM
      1 C         138.9134  141.1017  157.3339 C.3     1  UNL1        0.1459
      2 O         137.9915  140.0696  156.7553 O.3     1  UNL1       -0.3813
      3 H         138.5033  139.2869  156.4978 H       1  UNL1        0.2105
      4 C         138.3651  142.4136  157.8118 C.3     1  UNL1        0.1034
      5 C         139.8278  144.1889  161.6794 C.3     1  UNL1        0.1687
      6 C         140.2864  144.7609  160.3708 C.3     1  UNL1        0.0609
      7 C         139.7988  144.1691  159.0816 C.3     1  UNL1        0.0759
      8 N         138.8526  143.0053  159.1010 N.3     1  UNL1       -0.2704
      9 C         138.3940  142.4333  160.4096 C.3     1  UNL1        0.0759
     10 C         138.8816  143.0251  161.6988 C.3     1  UNL1        0.0609
     11 O         140.3153  144.7806  162.9686 O.3     1  UNL1       -0.4782
     12 C         140.2903  142.6517  167.7086 C.3     1  UNL1        0.0329
     13 C         140.9445  142.8380  166.3716 C.ar    1  UNL1        0.0023
     14 C         142.2402  142.1462  166.0678 C.ar    1  UNL1        0.0547
     15 CL        142.8818  141.2680  167.1008 Cl      1  UNL1       -0.0825
     16 C         142.8943  142.3325  164.7308 C.ar    1  UNL1        0.0142
     17 C         142.2527  143.2106  163.6978 C.ar    1  UNL1        0.0386
     18 C         140.9570  143.9025  164.0017 C.ar    1  UNL1        0.1485
     19 C         140.3029  143.7162  165.3386 C.ar    1  UNL1        0.0884
     20 CL        139.0071  144.4080  165.6425 Cl      1  UNL1       -0.0794
     21 C         140.3837  140.8220  157.4347 C.3     1  UNL1        0.1204
     22 N         141.0345  140.7060  158.7811 N.am    1  UNL1       -0.2985
     23 C         141.3258  139.3529  159.3593 C.2     1  UNL1        0.2469
     24 O         140.9663  138.1158  158.5909 O.2     1  UNL1       -0.2701
     25 H         141.2704  141.5180  159.2854 H       1  UNL1        0.1498
     26 C         141.9766  139.2369  160.7057 C.2     1  UNL1        0.0665
     27 C         143.4723  139.2449  160.8190 C.2     1  UNL1        0.0931
     28 N         144.1231  139.1289  162.1655 N.am    1  UNL1       -0.1740
     29 C         143.2782  139.0049  163.3987 C.2     1  UNL1        0.2688
     30 O         143.9290  138.8888  164.7452 O.2     1  UNL1       -0.2680
     31 C         141.7825  138.9968  163.2854 C.2     1  UNL1        0.0532
     32 C         140.9376  138.8728  164.5186 C.2     1  UNL1        0.0223
     33 C         139.4419  138.8648  164.4053 C.2     1  UNL1        0.1019
     34 C         138.7911  138.9808  163.0588 C.2     1  UNL1       -0.0031
     35 C         139.6360  139.1049  161.8257 C.3     1  UNL1        0.0540
     36 C         141.1317  139.1129  161.9390 C.2     1  UNL1       -0.0076
     37 S         138.5970  138.7408  165.6385 S.O2    1  UNL1        0.0102
     38 C         137.7521  138.6167  166.8717 C.3     1  UNL1        0.1816
     39 O         138.6063  140.2325  165.7950 O.2     1  UNL1       -0.1686
     40 O         138.5877  137.2490  165.4820 O.2     1  UNL1       -0.1686
@<TRIPOS>BOND
     1    12    13    1
     2    13    14   ar
     3    14    15    1
     4    14    16   ar
     5    16    17   ar
     6    17    18   ar
     7    18    11    1
     8    11     5    1
     9     5     6    1
    10     6     7    1
    11     7     8    1
    12     8     4    1
    13     4     1    1
    14     1     2    1
    15     1    21    1
    16    21    22    1
    17    22    23   am
    18    23    24    2
    19    23    26    1
    20    26    27    1
    21    27    28    2
    22    28    29    1
    23    29    30    2
    24    29    31    1
    25    31    32    2
    26    32    33    1
    27    33    37    1
    28    37    38    1
    29    37    39    2
    30    37    40    2
    31    33    34    2
    32    34    35    1
    33    35    36    1
    34     8     9    1
    35     9    10    1
    36    18    19   ar
    37    19    20    1
    38    19    13   ar
    39    10     5    1
    40    36    26    2
    41    36    31    1
    42     2     3    1
    43    22    25    1
@<TRIPOS>MOLECULE
*****
 40 43 0 0 0
SMALL
GASTEIGER

@<TRIPOS>ATOM
      1 C         140.2373  144.3222  157.5403 C.3     1  UNL1        0.1459
      2 O         141.2163  144.1768  156.4132 O.3     1  UNL1       -0.3813
      3 H         140.9945  143.3895  155.8919 H       1  UNL1        0.2105
      4 C         140.3625  145.4688  158.4993 C.3     1  UNL1        0.1034
      5 C         141.5017  144.7034  162.7849 C.3     1  UNL1        0.1687
      6 C         140.3554  145.6165  162.4652 C.3     1  UNL1        0.0609
      7 C         139.9757  145.8716  161.0366 C.3     1  UNL1        0.0759
      8 N         140.7423  145.2136  159.9278 N.3     1  UNL1       -0.2704
      9 C         141.8886  144.3006  160.2476 C.3     1  UNL1        0.0759
     10 C         142.2683  144.0454  161.6761 C.3     1  UNL1        0.0609
     11 O         141.8815  144.4482  164.2134 O.3     1  UNL1       -0.4782
     12 C         142.5449  140.3743  167.3699 C.3     1  UNL1        0.0329
     13 C         141.6509  141.2246  166.5167 C.ar    1  UNL1        0.0023
     14 C         140.1947  140.8883  166.3886 C.ar    1  UNL1        0.0547
     15 CL        139.6325  139.7016  167.1137 Cl      1  UNL1       -0.0825
     16 C         139.3008  141.7386  165.5355 C.ar    1  UNL1        0.0142
     17 C         139.8631  142.9252  164.8104 C.ar    1  UNL1        0.0386
     18 C         141.3192  143.2616  164.9385 C.ar    1  UNL1        0.1485
     19 C         142.2131  142.4113  165.7916 C.ar    1  UNL1        0.0884
     20 CL        143.6694  142.7476  165.9198 Cl      1  UNL1       -0.0794
     21 C         139.1329  143.3210  157.7084 C.3     1  UNL1        0.1204
     22 N         138.9846  142.5785  159.0032 N.am    1  UNL1       -0.2985
     23 C         139.2755  141.1082  159.0622 C.2     1  UNL1        0.2469
     24 O         139.7148  140.3804  157.8263 O.2     1  UNL1       -0.2701
     25 H         138.6962  143.0561  159.8144 H       1  UNL1        0.1498
     26 C         139.1271  140.3656  160.3570 C.2     1  UNL1        0.0665
     27 C         137.7824  139.8496  160.7758 C.2     1  UNL1        0.0931
     28 N         137.6340  139.1070  162.0707 N.am    1  UNL1       -0.1740
     29 C         138.8303  138.8804  162.9467 C.2     1  UNL1        0.2688
     30 O         138.6819  138.1378  164.2415 O.2     1  UNL1       -0.2680
     31 C         140.1751  139.3964  162.5279 C.2     1  UNL1        0.0532
     32 C         141.3714  139.1698  163.4039 C.2     1  UNL1        0.0223
     33 C         142.7162  139.6858  162.9850 C.2     1  UNL1        0.1019
     34 C         142.8646  140.4284  161.6902 C.2     1  UNL1       -0.0031
     35 C         141.6682  140.6550  160.8142 C.3     1  UNL1        0.0540
     36 C         140.3235  140.1390  161.2330 C.2     1  UNL1       -0.0076
     37 S         143.9126  139.4592  163.8610 S.O2    1  UNL1        0.0102
     38 C         145.1090  139.2327  164.7370 C.3     1  UNL1        0.1816
     39 O         143.1616  138.4007  164.6130 O.2     1  UNL1       -0.1686
     40 O         144.6636  140.5177  163.1091 O.2     1  UNL1       -0.1686
@<TRIPOS>BOND
     1    12    13    1
     2    13    14   ar
     3    14    15    1
     4    14    16   ar
     5    16    17   ar
     6    17    18   ar
     7    18    11    1
     8    11     5    1
     9     5     6    1
    10     6     7    1
    11     7     8    1
    12     8     4    1
    13     4     1    1
    14     1     2    1
    15     1    21    1
    16    21    22    1
    17    22    23   am
    18    23    24    2
    19    23    26    1
    20    26    27    1
    21    27    28    2
    22    28    29    1
    23    29    30    2
    24    29    31    1
    25    31    32    2
    26    32    33    1
    27    33    37    1
    28    37    38    1
    29    37    39    2
    30    37    40    2
    31    33    34    2
    32    34    35    1
    33    35    36    1
    34     8     9    1
    35     9    10    1
    36    18    19   ar
    37    19    20    1
    38    19    13   ar
    39    10     5    1
    40    36    26    2
    41    36    31    1
    42     2     3    1
    43    22    25    1
