@<TRIPOS>MOLECULE
*****
 27 30 0 0 0
SMALL
GASTEIGER

@<TRIPOS>ATOM
      1 C         140.9768  143.0392  163.0894 C.3     1  UNL1        0.1406
      2 C         142.2006  142.2097  162.8360 C.3     1  UNL1        0.0374
      3 C         142.6242  141.1735  163.8344 C.3     1  UNL1        0.0410
      4 C         143.8481  140.3440  163.5810 C.3     1  UNL1        0.0672
      5 S         144.2717  139.3078  164.5794 S.3     1  UNL1       -0.0807
      6 C         143.4715  139.1010  165.8312 C.2     1  UNL1        0.1482
      7 N         143.8951  138.0648  166.8296 N.pl3   1  UNL1       -0.3380
      8 N         142.2477  139.9305  166.0846 N.2     1  UNL1       -0.2484
      9 C         141.8240  140.9668  165.0862 C.3     1  UNL1        0.1352
     10 C         140.6002  141.7963  165.3396 C.3     1  UNL1        0.1690
     11 O         140.1766  142.8324  164.3412 O.3     1  UNL1       -0.3494
     12 H         144.6983  137.5204  166.6633 H       1  UNL1        0.1442
     13 H         143.3699  137.9291  167.6512 H       1  UNL1        0.1442
     14 C         141.0238  140.7601  166.3379 C.ar    1  UNL1        0.0278
     15 C         139.8676  139.8043  166.3397 C.ar    1  UNL1        0.0021
     16 C         139.0674  139.5976  167.5915 C.ar    1  UNL1        0.0295
     17 C         139.4234  140.3466  168.8415 C.ar    1  UNL1        0.1424
     18 F         138.6232  140.1399  170.0932 F       1  UNL1       -0.2041
     19 C         140.5795  141.3023  168.8396 C.ar    1  UNL1        0.0590
     20 C         141.3797  141.5090  167.5879 C.ar    1  UNL1        0.1402
     21 F         142.5358  142.4647  167.5860 F       1  UNL1       -0.2044
     22 C         140.3382  145.6919  158.5687 C.3     1  UNL1        0.1537
     23 N         140.2597  145.2947  160.0130 N.ar    1  UNL1       -0.2476
     24 C         140.8840  144.0773  160.6279 C.ar    1  UNL1        0.0947
     25 C         140.5532  144.0754  162.0910 C.ar    1  UNL1        0.0442
     26 C         139.7243  145.2917  162.3803 C.ar    1  UNL1        0.1197
     27 N         139.5429  146.0453  161.0961 N.ar    1  UNL1       -0.1679
@<TRIPOS>BOND
     1    22    23    1
     2    23    24   ar
     3    24    25   ar
     4     1    25    1
     5     1     2    1
     6     3     2    1
     7     3     4    1
     8     4     5    1
     9     5     6    1
    10     6     7    1
    11     6     8    2
    12     8     9    1
    13     9    14    1
    14    14    15   ar
    15    15    16   ar
    16    16    17   ar
    17    17    18    1
    18    17    19   ar
    19    19    20   ar
    20    20    21    1
    21     9    10    1
    22    10    11    1
    23    25    26   ar
    24    26    27   ar
    25    27    23   ar
    26    11     1    1
    27     9     3    1
    28    20    14   ar
    29     7    12    1
    30     7    13    1
@<TRIPOS>MOLECULE
*****
 27 30 0 0 0
SMALL
GASTEIGER

@<TRIPOS>ATOM
      1 C         140.8182  142.8312  162.4228 C.3     1  UNL1        0.1406
      2 C         142.2537  142.4456  162.6241 C.3     1  UNL1        0.0374
      3 C         142.6050  141.3198  163.5510 C.3     1  UNL1        0.0410
      4 C         144.0406  140.9342  163.7524 C.3     1  UNL1        0.0672
      5 S         144.3918  139.8084  164.6793 S.3     1  UNL1       -0.0807
      6 C         143.3075  139.0683  165.4050 C.2     1  UNL1        0.1482
      7 N         143.6588  137.9425  166.3320 N.pl3   1  UNL1       -0.3380
      8 N         141.8720  139.4539  165.2037 N.2     1  UNL1       -0.2484
      9 C         141.5207  140.5797  164.2767 C.3     1  UNL1        0.1352
     10 C         140.0852  140.9653  164.0754 C.3     1  UNL1        0.1690
     11 O         139.7340  142.0910  163.1484 O.3     1  UNL1       -0.3494
     12 H         144.6010  137.6894  166.4641 H       1  UNL1        0.1442
     13 H         142.9472  137.4567  166.8082 H       1  UNL1        0.1442
     14 C         140.4364  139.8396  165.0023 C.ar    1  UNL1        0.0278
     15 C         139.9605  140.3270  166.3387 C.ar    1  UNL1        0.0021
     16 C         138.8762  139.5869  167.0644 C.ar    1  UNL1        0.0295
     17 C         138.2679  138.3593  166.4536 C.ar    1  UNL1        0.1424
     18 F         137.1836  137.6191  167.1792 F       1  UNL1       -0.2041
     19 C         138.7438  137.8719  165.1173 C.ar    1  UNL1        0.0590
     20 C         139.8281  138.6120  164.3916 C.ar    1  UNL1        0.1402
     21 F         140.3041  138.1246  163.0553 F       1  UNL1       -0.2044
     22 C         140.3129  145.7849  158.0752 C.3     1  UNL1        0.1537
     23 N         140.2347  145.3146  159.4974 N.ar    1  UNL1       -0.2476
     24 C         140.7593  144.0124  160.0256 C.ar    1  UNL1        0.0947
     25 C         140.4669  143.9570  161.4958 C.ar    1  UNL1        0.0442
     26 C         139.7616  145.2249  161.8762 C.ar    1  UNL1        0.1197
     27 N         139.6180  146.0640  160.6412 N.ar    1  UNL1       -0.1679
@<TRIPOS>BOND
     1    22    23    1
     2    23    24   ar
     3    24    25   ar
     4     1    25    1
     5     1     2    1
     6     3     2    1
     7     3     4    1
     8     4     5    1
     9     5     6    1
    10     6     7    1
    11     6     8    2
    12     8     9    1
    13     9    14    1
    14    14    15   ar
    15    15    16   ar
    16    16    17   ar
    17    17    18    1
    18    17    19   ar
    19    19    20   ar
    20    20    21    1
    21     9    10    1
    22    10    11    1
    23    25    26   ar
    24    26    27   ar
    25    27    23   ar
    26    11     1    1
    27     9     3    1
    28    20    14   ar
    29     7    12    1
    30     7    13    1
@<TRIPOS>MOLECULE
*****
 27 30 0 0 0
SMALL
GASTEIGER

@<TRIPOS>ATOM
      1 C         139.9668  140.4611  166.5819 C.3     1  UNL1        0.1406
      2 C         139.5155  139.3261  165.7113 C.3     1  UNL1        0.0374
      3 C         139.0896  139.5890  164.2973 C.3     1  UNL1        0.0410
      4 C         138.6383  138.4540  163.4265 C.3     1  UNL1        0.0672
      5 S         138.2125  138.7169  162.0125 S.3     1  UNL1       -0.0807
      6 C         138.2379  140.1148  161.4692 C.2     1  UNL1        0.1482
      7 N         137.8120  140.3777  160.0551 N.pl3   1  UNL1       -0.3380
      8 N         138.6892  141.2498  162.3398 N.2     1  UNL1       -0.2484
      9 C         139.1151  140.9869  163.7539 C.3     1  UNL1        0.1352
     10 C         139.5663  142.1219  164.6246 C.3     1  UNL1        0.1690
     11 O         139.9922  141.8590  166.0386 O.3     1  UNL1       -0.3494
     12 H         137.5158  139.6327  159.4836 H       1  UNL1        0.1442
     13 H         137.8287  141.2952  159.6984 H       1  UNL1        0.1442
     14 C         139.1405  142.3848  163.2106 C.ar    1  UNL1        0.0278
     15 C         137.9429  143.2737  163.3710 C.ar    1  UNL1        0.0021
     16 C         137.9683  144.6716  162.8277 C.ar    1  UNL1        0.0295
     17 C         139.1913  145.1806  162.1239 C.ar    1  UNL1        0.1424
     18 F         139.2167  146.5785  161.5805 F       1  UNL1       -0.2041
     19 C         140.3888  144.2917  161.9635 C.ar    1  UNL1        0.0590
     20 C         140.3634  142.8938  162.5068 C.ar    1  UNL1        0.1402
     21 F         141.5609  142.0049  162.3464 F       1  UNL1       -0.2044
     22 C         142.9554  139.5892  170.8468 C.3     1  UNL1        0.1537
     23 N         141.7664  139.7975  169.9564 N.ar    1  UNL1       -0.2476
     24 C         141.8053  140.0498  168.4783 C.ar    1  UNL1        0.0947
     25 C         140.3927  140.1982  167.9960 C.ar    1  UNL1        0.0442
     26 C         139.4807  140.0376  169.1761 C.ar    1  UNL1        0.1197
     27 N         140.3297  139.7899  170.3877 N.ar    1  UNL1       -0.1679
@<TRIPOS>BOND
     1    22    23    1
     2    23    24   ar
     3    24    25   ar
     4     1    25    1
     5     1     2    1
     6     3     2    1
     7     3     4    1
     8     4     5    1
     9     5     6    1
    10     6     7    1
    11     6     8    2
    12     8     9    1
    13     9    14    1
    14    14    15   ar
    15    15    16   ar
    16    16    17   ar
    17    17    18    1
    18    17    19   ar
    19    19    20   ar
    20    20    21    1
    21     9    10    1
    22    10    11    1
    23    25    26   ar
    24    26    27   ar
    25    27    23   ar
    26    11     1    1
    27     9     3    1
    28    20    14   ar
    29     7    12    1
    30     7    13    1
@<TRIPOS>MOLECULE
*****
 27 30 0 0 0
SMALL
GASTEIGER

@<TRIPOS>ATOM
      1 C         141.1875  141.2941  166.6347 C.3     1  UNL1        0.1406
      2 C         139.9620  142.1149  166.3620 C.3     1  UNL1        0.0374
      3 C         139.8573  142.9075  165.0928 C.3     1  UNL1        0.0410
      4 C         138.6318  143.7282  164.8200 C.3     1  UNL1        0.0672
      5 S         138.5271  144.5208  163.5509 S.3     1  UNL1       -0.0807
      6 C         139.6480  144.4927  162.5545 C.2     1  UNL1        0.1482
      7 N         139.5433  145.2854  161.2853 N.pl3   1  UNL1       -0.3380
      8 N         140.8735  143.6720  162.8272 N.2     1  UNL1       -0.2484
      9 C         140.9782  142.8793  164.0964 C.3     1  UNL1        0.1352
     10 C         142.2038  142.0586  164.3692 C.3     1  UNL1        0.1690
     11 O         142.3084  141.2660  165.6383 O.3     1  UNL1       -0.3494
     12 H         138.7390  145.8240  161.1062 H       1  UNL1        0.1442
     13 H         140.2790  145.2669  160.6313 H       1  UNL1        0.1442
     14 C         142.0991  142.8512  163.1000 C.ar    1  UNL1        0.0278
     15 C         142.1001  141.8304  162.0009 C.ar    1  UNL1        0.0021
     16 C         143.2210  141.8022  161.0045 C.ar    1  UNL1        0.0295
     17 C         144.3409  142.7949  161.1072 C.ar    1  UNL1        0.1424
     18 F         145.4618  142.7668  160.1108 F       1  UNL1       -0.2041
     19 C         144.3399  143.8157  162.2063 C.ar    1  UNL1        0.0590
     20 C         143.2190  143.8438  163.2027 C.ar    1  UNL1        0.1402
     21 F         143.2180  144.8645  164.3018 F       1  UNL1       -0.2044
     22 C         142.9961  138.0793  170.4130 C.3     1  UNL1        0.1537
     23 N         142.1235  139.0238  169.6406 N.ar    1  UNL1       -0.2476
     24 C         142.4381  139.6182  168.2998 C.ar    1  UNL1        0.0947
     25 C         141.2922  140.5015  167.9040 C.ar    1  UNL1        0.0442
     26 C         140.2694  140.4529  169.0001 C.ar    1  UNL1        0.1197
     27 N         140.7831  139.5397  170.0734 N.ar    1  UNL1       -0.1679
@<TRIPOS>BOND
     1    22    23    1
     2    23    24   ar
     3    24    25   ar
     4     1    25    1
     5     1     2    1
     6     3     2    1
     7     3     4    1
     8     4     5    1
     9     5     6    1
    10     6     7    1
    11     6     8    2
    12     8     9    1
    13     9    14    1
    14    14    15   ar
    15    15    16   ar
    16    16    17   ar
    17    17    18    1
    18    17    19   ar
    19    19    20   ar
    20    20    21    1
    21     9    10    1
    22    10    11    1
    23    25    26   ar
    24    26    27   ar
    25    27    23   ar
    26    11     1    1
    27     9     3    1
    28    20    14   ar
    29     7    12    1
    30     7    13    1
@<TRIPOS>MOLECULE
*****
 27 30 0 0 0
SMALL
GASTEIGER

@<TRIPOS>ATOM
      1 C         141.7015  142.2196  163.2787 C.3     1  UNL1        0.1406
      2 C         140.5639  141.2418  163.2783 C.3     1  UNL1        0.0374
      3 C         140.0038  140.7425  164.5770 C.3     1  UNL1        0.0410
      4 C         138.8662  139.7647  164.5767 C.3     1  UNL1        0.0672
      5 S         138.3060  139.2654  165.8755 S.3     1  UNL1       -0.0807
      6 C         138.8834  139.7438  167.1746 C.2     1  UNL1        0.1482
      7 N         138.3231  139.2444  168.4734 N.pl3   1  UNL1       -0.3380
      8 N         140.0209  140.7215  167.1750 N.2     1  UNL1       -0.2484
      9 C         140.5811  141.2209  165.8762 C.3     1  UNL1        0.1352
     10 C         141.7186  142.1986  165.8766 C.3     1  UNL1        0.1690
     11 O         142.2788  142.6980  164.5778 O.3     1  UNL1       -0.3494
     12 H         137.5765  138.6027  168.4732 H       1  UNL1        0.1442
     13 H         138.7020  139.5584  169.3261 H       1  UNL1        0.1442
     14 C         141.1585  141.6993  167.1754 C.ar    1  UNL1        0.0278
     15 C         140.5176  142.8425  167.9051 C.ar    1  UNL1        0.0021
     16 C         141.0949  143.3209  169.2043 C.ar    1  UNL1        0.0295
     17 C         142.3131  142.6561  169.7737 C.ar    1  UNL1        0.1424
     18 F         142.8905  143.1345  171.0728 F       1  UNL1       -0.2041
     19 C         142.9539  141.5130  169.0439 C.ar    1  UNL1        0.0590
     20 C         142.3766  141.0346  167.7447 C.ar    1  UNL1        0.1402
     21 F         143.0174  139.8915  167.0150 F       1  UNL1       -0.2044
     22 C         144.5286  142.5694  158.8328 C.3     1  UNL1        0.1537
     23 N         143.5612  142.8797  159.9363 N.ar    1  UNL1       -0.2476
     24 C         143.2987  142.0293  161.1437 C.ar    1  UNL1        0.0947
     25 C         142.2617  142.7189  161.9799 C.ar    1  UNL1        0.0442
     26 C         141.8833  143.9955  161.2892 C.ar    1  UNL1        0.1197
     27 N         142.6864  144.0949  160.0262 N.ar    1  UNL1       -0.1679
@<TRIPOS>BOND
     1    22    23    1
     2    23    24   ar
     3    24    25   ar
     4     1    25    1
     5     1     2    1
     6     3     2    1
     7     3     4    1
     8     4     5    1
     9     5     6    1
    10     6     7    1
    11     6     8    2
    12     8     9    1
    13     9    14    1
    14    14    15   ar
    15    15    16   ar
    16    16    17   ar
    17    17    18    1
    18    17    19   ar
    19    19    20   ar
    20    20    21    1
    21     9    10    1
    22    10    11    1
    23    25    26   ar
    24    26    27   ar
    25    27    23   ar
    26    11     1    1
    27     9     3    1
    28    20    14   ar
    29     7    12    1
    30     7    13    1
@<TRIPOS>MOLECULE
*****
 27 30 0 0 0
SMALL
GASTEIGER

@<TRIPOS>ATOM
      1 C         141.8957  140.4286  161.1930 C.3     1  UNL1        0.1406
      2 C         141.4365  139.1148  161.7524 C.3     1  UNL1        0.0374
      3 C         140.5179  139.0844  162.9378 C.3     1  UNL1        0.0410
      4 C         140.0586  137.7705  163.4972 C.3     1  UNL1        0.0672
      5 S         139.1400  137.7401  164.6826 S.3     1  UNL1       -0.0807
      6 C         138.6807  139.0235  165.3087 C.2     1  UNL1        0.1482
      7 N         137.7621  138.9931  166.4942 N.pl3   1  UNL1       -0.3380
      8 N         139.1400  140.3373  164.7493 N.2     1  UNL1       -0.2484
      9 C         140.0586  140.3678  163.5638 C.3     1  UNL1        0.1352
     10 C         140.5179  141.6816  163.0045 C.3     1  UNL1        0.1690
     11 O         141.4365  141.7120  161.8191 O.3     1  UNL1       -0.3494
     12 H         137.4607  138.1307  166.8613 H       1  UNL1        0.1442
     13 H         137.4606  139.8354  166.9051 H       1  UNL1        0.1442
     14 C         139.5993  141.6512  164.1899 C.ar    1  UNL1        0.0278
     15 C         140.4139  142.2895  165.2758 C.ar    1  UNL1        0.0021
     16 C         139.9546  143.5729  165.9019 C.ar    1  UNL1        0.0295
     17 C         138.6808  144.2180  165.4420 C.ar    1  UNL1        0.1424
     18 F         138.2215  145.5014  166.0681 F       1  UNL1       -0.2041
     19 C         137.8663  143.5796  164.3562 C.ar    1  UNL1        0.0590
     20 C         138.3256  142.2962  163.7301 C.ar    1  UNL1        0.1402
     21 F         137.5111  141.6579  162.6443 F       1  UNL1       -0.2044
     22 C         145.2562  142.1158  157.4860 C.3     1  UNL1        0.1537
     23 N         144.3590  141.2346  158.3036 N.ar    1  UNL1       -0.2476
     24 C         143.5664  141.6559  159.5054 C.ar    1  UNL1        0.0947
     25 C         142.8144  140.4591  160.0075 C.ar    1  UNL1        0.0442
     26 C         143.1422  139.2981  159.1161 C.ar    1  UNL1        0.1197
     27 N         144.0969  139.7774  158.0630 N.ar    1  UNL1       -0.1679
@<TRIPOS>BOND
     1    22    23    1
     2    23    24   ar
     3    24    25   ar
     4     1    25    1
     5     1     2    1
     6     3     2    1
     7     3     4    1
     8     4     5    1
     9     5     6    1
    10     6     7    1
    11     6     8    2
    12     8     9    1
    13     9    14    1
    14    14    15   ar
    15    15    16   ar
    16    16    17   ar
    17    17    18    1
    18    17    19   ar
    19    19    20   ar
    20    20    21    1
    21     9    10    1
    22    10    11    1
    23    25    26   ar
    24    26    27   ar
    25    27    23   ar
    26    11     1    1
    27     9     3    1
    28    20    14   ar
    29     7    12    1
    30     7    13    1
@<TRIPOS>MOLECULE
*****
 27 30 0 0 0
SMALL
GASTEIGER

@<TRIPOS>ATOM
      1 C         141.1973  144.9808  159.7656 C.3     1  UNL1        0.1406
      2 C         140.0815  145.3079  160.7132 C.3     1  UNL1        0.0374
      3 C         140.1189  144.7937  162.1218 C.3     1  UNL1        0.0410
      4 C         139.0031  145.1208  163.0695 C.3     1  UNL1        0.0672
      5 S         139.0405  144.6066  164.4781 S.3     1  UNL1       -0.0807
      6 C         140.1936  143.7653  164.9391 C.2     1  UNL1        0.1482
      7 N         140.2309  143.2510  166.3477 N.pl3   1  UNL1       -0.3380
      8 N         141.3093  143.4381  163.9914 N.2     1  UNL1       -0.2484
      9 C         141.2720  143.9524  162.5828 C.3     1  UNL1        0.1352
     10 C         142.3877  143.6252  161.6351 C.3     1  UNL1        0.1690
     11 O         142.3504  144.1395  160.2266 O.3     1  UNL1       -0.3494
     12 H         139.4986  143.4657  166.9697 H       1  UNL1        0.1442
     13 H         140.9877  142.6988  166.6503 H       1  UNL1        0.1442
     14 C         142.4251  143.1110  163.0437 C.ar    1  UNL1        0.0278
     15 C         142.3944  141.6242  162.8473 C.ar    1  UNL1        0.0021
     16 C         143.5475  140.7828  163.3082 C.ar    1  UNL1        0.0295
     17 C         144.7313  141.4283  163.9656 C.ar    1  UNL1        0.1424
     18 F         145.8844  140.5869  164.4265 F       1  UNL1       -0.2041
     19 C         144.7620  142.9150  164.1620 C.ar    1  UNL1        0.0590
     20 C         143.6089  143.7564  163.7010 C.ar    1  UNL1        0.1402
     21 F         143.6395  145.2431  163.8974 F       1  UNL1       -0.2044
     22 C         139.5657  147.2773  155.2995 C.3     1  UNL1        0.1537
     23 N         140.4100  146.5506  156.3041 N.ar    1  UNL1       -0.2476
     24 C         140.0176  146.2249  157.7148 C.ar    1  UNL1        0.0947
     25 C         141.1599  145.4950  158.3570 C.ar    1  UNL1        0.0442
     26 C         142.2584  145.3698  157.3432 C.ar    1  UNL1        0.1197
     27 N         141.7949  146.0221  156.0745 N.ar    1  UNL1       -0.1679
@<TRIPOS>BOND
     1    22    23    1
     2    23    24   ar
     3    24    25   ar
     4     1    25    1
     5     1     2    1
     6     3     2    1
     7     3     4    1
     8     4     5    1
     9     5     6    1
    10     6     7    1
    11     6     8    2
    12     8     9    1
    13     9    14    1
    14    14    15   ar
    15    15    16   ar
    16    16    17   ar
    17    17    18    1
    18    17    19   ar
    19    19    20   ar
    20    20    21    1
    21     9    10    1
    22    10    11    1
    23    25    26   ar
    24    26    27   ar
    25    27    23   ar
    26    11     1    1
    27     9     3    1
    28    20    14   ar
    29     7    12    1
    30     7    13    1
@<TRIPOS>MOLECULE
*****
 27 30 0 0 0
SMALL
GASTEIGER

@<TRIPOS>ATOM
      1 C         142.1394  139.7384  163.5436 C.3     1  UNL1        0.1406
      2 C         140.8147  139.0624  163.7387 C.3     1  UNL1        0.0374
      3 C         140.1123  139.1562  165.0607 C.3     1  UNL1        0.0410
      4 C         138.7875  138.4802  165.2559 C.3     1  UNL1        0.0672
      5 S         138.0852  138.5740  166.5779 S.3     1  UNL1       -0.0807
      6 C         138.7075  139.3438  167.7049 C.2     1  UNL1        0.1482
      7 N         138.0051  139.4376  169.0270 N.pl3   1  UNL1       -0.3380
      8 N         140.0322  140.0198  167.5098 N.2     1  UNL1       -0.2484
      9 C         140.7347  139.9260  166.1877 C.3     1  UNL1        0.1352
     10 C         142.0594  140.6020  165.9926 C.3     1  UNL1        0.1690
     11 O         142.7618  140.5082  164.6706 O.3     1  UNL1       -0.3494
     12 H         137.1356  138.9939  169.1550 H       1  UNL1        0.1442
     13 H         138.4135  139.9428  169.7666 H       1  UNL1        0.1442
     14 C         141.3570  140.6958  167.3147 C.ar    1  UNL1        0.0278
     15 C         142.3583  140.0323  168.2132 C.ar    1  UNL1        0.0021
     16 C         142.9807  140.8021  169.3402 C.ar    1  UNL1        0.0295
     17 C         142.6017  142.2355  169.5686 C.ar    1  UNL1        0.1424
     18 F         143.2241  143.0053  170.6956 F       1  UNL1       -0.2041
     19 C         141.6005  142.8989  168.6701 C.ar    1  UNL1        0.0590
     20 C         140.9782  142.1290  167.5431 C.ar    1  UNL1        0.1402
     21 F         139.9769  142.7925  166.6446 F       1  UNL1       -0.2044
     22 C         143.9728  140.9239  158.7359 C.3     1  UNL1        0.1537
     23 N         143.6846  140.1895  160.0117 N.ar    1  UNL1       -0.2476
     24 C         142.8694  140.7046  161.1606 C.ar    1  UNL1        0.0947
     25 C         142.8418  139.6446  162.2215 C.ar    1  UNL1        0.0442
     26 C         143.6400  138.4743  161.7283 C.ar    1  UNL1        0.1197
     27 N         144.1609  138.8111  160.3625 N.ar    1  UNL1       -0.1679
@<TRIPOS>BOND
     1    22    23    1
     2    23    24   ar
     3    24    25   ar
     4     1    25    1
     5     1     2    1
     6     3     2    1
     7     3     4    1
     8     4     5    1
     9     5     6    1
    10     6     7    1
    11     6     8    2
    12     8     9    1
    13     9    14    1
    14    14    15   ar
    15    15    16   ar
    16    16    17   ar
    17    17    18    1
    18    17    19   ar
    19    19    20   ar
    20    20    21    1
    21     9    10    1
    22    10    11    1
    23    25    26   ar
    24    26    27   ar
    25    27    23   ar
    26    11     1    1
    27     9     3    1
    28    20    14   ar
    29     7    12    1
    30     7    13    1
@<TRIPOS>MOLECULE
*****
 27 30 0 0 0
SMALL
GASTEIGER

@<TRIPOS>ATOM
      1 C         139.9492  141.4673  166.3384 C.3     1  UNL1        0.1406
      2 C         139.9514  142.9202  165.9655 C.3     1  UNL1        0.0374
      3 C         139.8565  143.3246  164.5242 C.3     1  UNL1        0.0410
      4 C         139.8587  144.7775  164.1511 C.3     1  UNL1        0.0672
      5 S         139.7638  145.1819  162.7098 S.3     1  UNL1       -0.0807
      6 C         139.6666  144.1335  161.6415 C.2     1  UNL1        0.1482
      7 N         139.5717  144.5379  160.2001 N.pl3   1  UNL1       -0.3380
      8 N         139.6644  142.6806  162.0145 N.2     1  UNL1       -0.2484
      9 C         139.7593  142.2761  163.4558 C.3     1  UNL1        0.1352
     10 C         139.7571  140.8233  163.8288 C.3     1  UNL1        0.1690
     11 O         139.8521  140.4189  165.2701 O.3     1  UNL1       -0.3494
     12 H         139.5731  145.4915  159.9553 H       1  UNL1        0.1442
     13 H         139.5079  143.8498  159.4989 H       1  UNL1        0.1442
     14 C         139.6622  141.2277  162.3875 C.ar    1  UNL1        0.0278
     15 C         140.9092  140.6770  161.7616 C.ar    1  UNL1        0.0021
     16 C         140.8121  139.6285  160.6932 C.ar    1  UNL1        0.0295
     17 C         139.4680  139.1308  160.2509 C.ar    1  UNL1        0.1424
     18 F         139.3708  138.0823  159.1825 F       1  UNL1       -0.2041
     19 C         138.2210  139.6815  160.8768 C.ar    1  UNL1        0.0590
     20 C         138.3182  140.7300  161.9451 C.ar    1  UNL1        0.1402
     21 F         137.0713  141.2807  162.5711 F       1  UNL1       -0.2044
     22 C         141.2803  141.3605  171.4471 C.3     1  UNL1        0.1537
     23 N         140.6560  141.0138  170.1280 N.ar    1  UNL1       -0.2476
     24 C         140.8535  141.7527  168.8377 C.ar    1  UNL1        0.0947
     25 C         140.0441  141.0628  167.7798 C.ar    1  UNL1        0.0442
     26 C         139.3464  139.8975  168.4163 C.ar    1  UNL1        0.1197
     27 N         139.7245  139.8672  169.8676 N.ar    1  UNL1       -0.1679
@<TRIPOS>BOND
     1    22    23    1
     2    23    24   ar
     3    24    25   ar
     4     1    25    1
     5     1     2    1
     6     3     2    1
     7     3     4    1
     8     4     5    1
     9     5     6    1
    10     6     7    1
    11     6     8    2
    12     8     9    1
    13     9    14    1
    14    14    15   ar
    15    15    16   ar
    16    16    17   ar
    17    17    18    1
    18    17    19   ar
    19    19    20   ar
    20    20    21    1
    21     9    10    1
    22    10    11    1
    23    25    26   ar
    24    26    27   ar
    25    27    23   ar
    26    11     1    1
    27     9     3    1
    28    20    14   ar
    29     7    12    1
    30     7    13    1
