@<TRIPOS>MOLECULE
*****
 28 31 0 0 0
SMALL
GASTEIGER

@<TRIPOS>ATOM
      1 N         138.8663  138.9280  164.4000 N.3     1  UNL1       -0.2712
      2 C         138.3869  140.3427  164.2620 C.3     1  UNL1        0.0739
      3 C         138.7000  141.0646  165.5390 C.3     1  UNL1        0.0389
      4 C         139.3729  140.0963  166.4661 C.3     1  UNL1        0.0971
      5 C         139.4757  138.7758  165.7621 C.3     1  UNL1        0.0925
      6 N         139.8579  140.3959  167.8536 N.am    1  UNL1       -0.2589
      7 C         139.1529  140.0425  169.1295 C.2     1  UNL1        0.2338
      8 O         137.8391  139.3274  169.2420 O.2     1  UNL1       -0.2742
      9 C         139.9923  140.5296  170.2731 C.3     1  UNL1        0.1131
     10 C         141.2162  141.1841  169.7041 C.ar    1  UNL1        0.0007
     11 C         142.3955  141.8447  170.3543 C.ar    1  UNL1       -0.0026
     12 C         143.4917  142.4226  169.5092 C.ar    1  UNL1       -0.0002
     13 C         143.4086  142.3399  168.0138 C.ar    1  UNL1        0.0013
     14 C         142.2293  141.6794  167.3635 C.ar    1  UNL1        0.0146
     15 C         141.1331  141.1015  168.2086 C.ar    1  UNL1        0.0503
     16 C         138.7558  137.8541  163.3585 C.3     1  UNL1        0.0722
     17 C         143.2245  138.5276  159.8345 C.2     1  UNL1        0.4049
     18 O         144.5107  138.4323  160.6005 O.2     1  UNL1       -0.2262
     19 N         141.9136  138.3819  160.5489 N.am    1  UNL1       -0.2460
     20 C         141.8889  138.1409  162.0292 C.3     1  UNL1        0.0968
     21 C         140.5780  137.9952  162.7435 C.3     1  UNL1        0.0230
     22 C         139.2919  138.0905  161.9776 C.3     1  UNL1        0.0180
     23 C         137.8195  138.1037  161.6913 C.3     1  UNL1        0.0015
     24 C         139.3166  138.3315  160.4973 C.3     1  UNL1        0.0230
     25 C         140.6274  138.4772  159.7830 C.3     1  UNL1        0.0968
     26 O         143.2493  138.7686  158.3542 O.3     1  UNL1       -0.4345
     27 C         144.1917  141.1896  158.3674 C.3     1  UNL1        0.0513
     28 C         143.2350  140.1710  157.8222 C.3     1  UNL1        0.2102
@<TRIPOS>BOND
     1    27    28    1
     2    28    26    1
     3    26    17    1
     4    17    18    2
     5    17    19   am
     6    19    20    1
     7    20    21    1
     8    21    22    1
     9    22    23    1
    10    22    16    1
    11    16     1    1
    12     1     2    1
    13     2     3    1
    14     3     4    1
    15     4     6    1
    16     6     7   am
    17     7     8    2
    18     7     9    1
    19     9    10    1
    20    10    11   ar
    21    11    12   ar
    22    12    13   ar
    23    13    14   ar
    24    14    15   ar
    25     4     5    1
    26    22    24    1
    27    24    25    1
    28    25    19    1
    29     5     1    1
    30    15     6    1
    31    15    10   ar
@<TRIPOS>MOLECULE
*****
 28 31 0 0 0
SMALL
GASTEIGER

@<TRIPOS>ATOM
      1 N         138.3400  140.2439  164.8329 N.3     1  UNL1       -0.2712
      2 C         138.1149  138.8631  165.3739 C.3     1  UNL1        0.0739
      3 C         138.6665  138.8160  166.7680 C.3     1  UNL1        0.0389
      4 C         139.2325  140.1675  167.0886 C.3     1  UNL1        0.0971
      5 C         139.0307  141.0501  165.8926 C.3     1  UNL1        0.0925
      6 N         139.8857  140.5665  168.3786 N.am    1  UNL1       -0.2589
      7 C         139.3219  140.3597  169.7532 C.2     1  UNL1        0.2338
      8 O         138.0061  139.7176  170.0791 O.2     1  UNL1       -0.2742
      9 C         140.3051  140.9078  170.7446 C.3     1  UNL1        0.1131
     10 C         141.4765  141.4533  169.9828 C.ar    1  UNL1        0.0007
     11 C         142.7456  142.1149  170.4317 C.ar    1  UNL1       -0.0026
     12 C         143.7555  142.5655  169.4183 C.ar    1  UNL1       -0.0002
     13 C         143.4963  142.3545  167.9560 C.ar    1  UNL1        0.0013
     14 C         142.2272  141.6930  167.5071 C.ar    1  UNL1        0.0146
     15 C         141.2172  141.2424  168.5205 C.ar    1  UNL1        0.0503
     16 C         137.9439  140.7328  163.4712 C.3     1  UNL1        0.0722
     17 C         140.1502  145.3540  160.8985 C.2     1  UNL1        0.4049
     18 O         139.3672  146.5791  161.2678 O.2     1  UNL1       -0.2262
     19 N         139.7573  144.0172  161.4542 N.am    1  UNL1       -0.2460
     20 C         138.5816  143.9055  162.3790 C.3     1  UNL1        0.0968
     21 C         138.1888  142.5687  162.9345 C.3     1  UNL1        0.0230
     22 C         138.9717  141.3437  162.5653 C.3     1  UNL1        0.0180
     23 C         139.3976  139.9064  162.5107 C.3     1  UNL1        0.0015
     24 C         140.1474  141.4554  161.6405 C.3     1  UNL1        0.0230
     25 C         140.5402  142.7921  161.0850 C.3     1  UNL1        0.0968
     26 O         141.3259  145.4658  159.9738 O.3     1  UNL1       -0.4345
     27 C         142.1946  145.9138  157.5666 C.3     1  UNL1        0.0513
     28 C         141.1189  145.4213  158.4888 C.3     1  UNL1        0.2102
@<TRIPOS>BOND
     1    27    28    1
     2    28    26    1
     3    26    17    1
     4    17    18    2
     5    17    19   am
     6    19    20    1
     7    20    21    1
     8    21    22    1
     9    22    23    1
    10    22    16    1
    11    16     1    1
    12     1     2    1
    13     2     3    1
    14     3     4    1
    15     4     6    1
    16     6     7   am
    17     7     8    2
    18     7     9    1
    19     9    10    1
    20    10    11   ar
    21    11    12   ar
    22    12    13   ar
    23    13    14   ar
    24    14    15   ar
    25     4     5    1
    26    22    24    1
    27    24    25    1
    28    25    19    1
    29     5     1    1
    30    15     6    1
    31    15    10   ar
@<TRIPOS>MOLECULE
*****
 28 31 0 0 0
SMALL
GASTEIGER

@<TRIPOS>ATOM
      1 N         141.0942  144.4509  164.1625 N.3     1  UNL1       -0.2712
      2 C         139.6451  144.8183  164.2857 C.3     1  UNL1        0.0739
      3 C         139.0047  143.8619  165.2476 C.3     1  UNL1        0.0389
      4 C         140.0579  142.9035  165.7189 C.3     1  UNL1        0.0971
      5 C         141.3494  143.2676  165.0483 C.3     1  UNL1        0.0925
      6 N         139.8553  141.7786  166.6902 N.am    1  UNL1       -0.2589
      7 C         139.2012  140.4624  166.3910 C.2     1  UNL1        0.2338
      8 O         138.6347  140.0399  165.0679 O.2     1  UNL1       -0.2742
      9 C         139.2129  139.6428  167.6472 C.3     1  UNL1        0.1131
     10 C         139.8744  140.4524  168.7228 C.ar    1  UNL1        0.0007
     11 C         140.1664  140.1583  170.1644 C.ar    1  UNL1       -0.0026
     12 C         140.8555  141.1841  171.0145 C.ar    1  UNL1       -0.0002
     13 C         141.2526  142.5042  170.4230 C.ar    1  UNL1        0.0013
     14 C         140.9605  142.7984  168.9815 C.ar    1  UNL1        0.0146
     15 C         140.2714  141.7725  168.1314 C.ar    1  UNL1        0.0503
     16 C         142.1100  145.1451  163.3043 C.3     1  UNL1        0.0722
     17 C         143.3789  142.1260  158.6014 C.2     1  UNL1        0.4049
     18 O         142.1973  142.0785  157.6786 O.2     1  UNL1       -0.2262
     19 N         143.2842  142.8643  159.9038 N.am    1  UNL1       -0.2460
     20 C         142.0079  143.5551  160.2832 C.3     1  UNL1        0.0968
     21 C         141.9132  144.2933  161.5855 C.3     1  UNL1        0.0230
     22 C         143.0947  144.3408  162.5083 C.3     1  UNL1        0.0180
     23 C         143.9342  144.6677  163.7077 C.3     1  UNL1        0.0015
     24 C         144.3710  143.6500  162.1289 C.3     1  UNL1        0.0230
     25 C         144.4657  142.9118  160.8266 C.3     1  UNL1        0.0968
     26 O         144.6552  141.4352  158.2220 O.3     1  UNL1       -0.4345
     27 C         146.0086  141.3116  156.0078 C.3     1  UNL1        0.0513
     28 C         145.5854  142.0697  157.2310 C.3     1  UNL1        0.2102
@<TRIPOS>BOND
     1    27    28    1
     2    28    26    1
     3    26    17    1
     4    17    18    2
     5    17    19   am
     6    19    20    1
     7    20    21    1
     8    21    22    1
     9    22    23    1
    10    22    16    1
    11    16     1    1
    12     1     2    1
    13     2     3    1
    14     3     4    1
    15     4     6    1
    16     6     7   am
    17     7     8    2
    18     7     9    1
    19     9    10    1
    20    10    11   ar
    21    11    12   ar
    22    12    13   ar
    23    13    14   ar
    24    14    15   ar
    25     4     5    1
    26    22    24    1
    27    24    25    1
    28    25    19    1
    29     5     1    1
    30    15     6    1
    31    15    10   ar
@<TRIPOS>MOLECULE
*****
 28 31 0 0 0
SMALL
GASTEIGER

@<TRIPOS>ATOM
      1 N         138.2860  141.3995  164.3239 N.3     1  UNL1       -0.2712
      2 C         137.8824  139.9551  164.3504 C.3     1  UNL1        0.0739
      3 C         138.8117  139.2312  165.2791 C.3     1  UNL1        0.0389
      4 C         139.7896  140.2282  165.8265 C.3     1  UNL1        0.0971
      5 C         139.4647  141.5683  165.2361 C.3     1  UNL1        0.0925
      6 N         140.8978  139.9363  166.7943 N.am    1  UNL1       -0.2589
      7 C         142.1451  139.1578  166.4977 C.2     1  UNL1        0.2338
      8 O         142.5033  138.5343  165.1813 O.2     1  UNL1       -0.2742
      9 C         142.9714  139.1121  167.7488 C.3     1  UNL1        0.1131
     10 C         142.2348  139.8625  168.8185 C.ar    1  UNL1        0.0007
     11 C         142.5654  140.1477  170.2535 C.ar    1  UNL1       -0.0026
     12 C         141.6144  140.9423  171.0986 C.ar    1  UNL1       -0.0002
     13 C         140.3328  141.4517  170.5087 C.ar    1  UNL1        0.0013
     14 C         140.0022  141.1665  169.0737 C.ar    1  UNL1        0.0146
     15 C         140.9532  140.3719  168.2286 C.ar    1  UNL1        0.0503
     16 C         137.6267  142.4847  163.5252 C.3     1  UNL1        0.0722
     17 C         141.3151  143.9721  159.3991 C.2     1  UNL1        0.4049
     18 O         141.6471  142.7847  158.5447 O.2     1  UNL1       -0.2262
     19 N         140.3640  143.8256  160.5497 N.am    1  UNL1       -0.2460
     20 C         139.7449  142.4918  160.8459 C.3     1  UNL1        0.0968
     21 C         138.7939  142.3453  161.9965 C.3     1  UNL1        0.0230
     22 C         138.4618  143.5326  162.8509 C.3     1  UNL1        0.0180
     23 C         137.8397  144.3560  163.9396 C.3     1  UNL1        0.0015
     24 C         139.0808  144.8664  162.5548 C.3     1  UNL1        0.0230
     25 C         140.0319  145.0129  161.4041 C.3     1  UNL1        0.0968
     26 O         141.9341  145.3059  159.1028 O.3     1  UNL1       -0.4345
     27 C         140.4623  146.1264  157.1254 C.3     1  UNL1        0.0513
     28 C         141.8160  145.8993  157.7303 C.3     1  UNL1        0.2102
@<TRIPOS>BOND
     1    27    28    1
     2    28    26    1
     3    26    17    1
     4    17    18    2
     5    17    19   am
     6    19    20    1
     7    20    21    1
     8    21    22    1
     9    22    23    1
    10    22    16    1
    11    16     1    1
    12     1     2    1
    13     2     3    1
    14     3     4    1
    15     4     6    1
    16     6     7   am
    17     7     8    2
    18     7     9    1
    19     9    10    1
    20    10    11   ar
    21    11    12   ar
    22    12    13   ar
    23    13    14   ar
    24    14    15   ar
    25     4     5    1
    26    22    24    1
    27    24    25    1
    28    25    19    1
    29     5     1    1
    30    15     6    1
    31    15    10   ar
@<TRIPOS>MOLECULE
*****
 28 31 0 0 0
SMALL
GASTEIGER

@<TRIPOS>ATOM
      1 N         143.1646  137.1031  157.1562 N.3     1  UNL1       -0.2712
      2 C         143.7820  137.0321  155.7909 C.3     1  UNL1        0.0739
      3 C         143.9529  135.5851  155.4344 C.3     1  UNL1        0.0389
      4 C         143.4413  134.7620  156.5792 C.3     1  UNL1        0.0971
      5 C         142.9541  135.7002  157.6434 C.3     1  UNL1        0.0925
      6 N         143.4206  133.2637  156.6479 N.am    1  UNL1       -0.2589
      7 C         144.3473  132.4052  157.4567 C.2     1  UNL1        0.2338
      8 O         145.4576  132.8943  158.3388 O.2     1  UNL1       -0.2742
      9 C         143.9689  130.9718  157.2285 C.3     1  UNL1        0.1131
     10 C         142.8082  130.9444  156.2787 C.ar    1  UNL1        0.0007
     11 C         142.0162  129.8126  155.6942 C.ar    1  UNL1       -0.0026
     12 C         140.8852  130.0973  154.7509 C.ar    1  UNL1       -0.0002
     13 C         140.5463  131.5137  154.3921 C.ar    1  UNL1        0.0013
     14 C         141.3384  132.6455  154.9766 C.ar    1  UNL1        0.0146
     15 C         142.4693  132.3608  155.9199 C.ar    1  UNL1        0.0503
     16 C         142.8185  138.3571  157.9031 C.3     1  UNL1        0.0722
     17 C         140.5162  137.7502  163.1158 C.2     1  UNL1        0.4049
     18 O         141.5746  137.3817  164.1129 O.2     1  UNL1       -0.2262
     19 N         140.8828  137.9630  161.6770 N.am    1  UNL1       -0.2460
     20 C         142.3078  137.8074  161.2352 C.3     1  UNL1        0.0968
     21 C         142.6744  138.0202  159.7963 C.3     1  UNL1        0.0230
     22 C         141.6161  138.3886  158.7993 C.3     1  UNL1        0.0180
     23 C         140.9753  138.7461  157.4910 C.3     1  UNL1        0.0015
     24 C         140.1911  138.5443  159.2411 C.3     1  UNL1        0.0230
     25 C         139.8245  138.3315  160.6799 C.3     1  UNL1        0.0968
     26 O         139.0912  137.9058  163.5577 O.3     1  UNL1       -0.4345
     27 C         138.3919  138.9270  165.8420 C.3     1  UNL1        0.0513
     28 C         138.7308  137.7305  165.0031 C.3     1  UNL1        0.2102
@<TRIPOS>BOND
     1    27    28    1
     2    28    26    1
     3    26    17    1
     4    17    18    2
     5    17    19   am
     6    19    20    1
     7    20    21    1
     8    21    22    1
     9    22    23    1
    10    22    16    1
    11    16     1    1
    12     1     2    1
    13     2     3    1
    14     3     4    1
    15     4     6    1
    16     6     7   am
    17     7     8    2
    18     7     9    1
    19     9    10    1
    20    10    11   ar
    21    11    12   ar
    22    12    13   ar
    23    13    14   ar
    24    14    15   ar
    25     4     5    1
    26    22    24    1
    27    24    25    1
    28    25    19    1
    29     5     1    1
    30    15     6    1
    31    15    10   ar
@<TRIPOS>MOLECULE
*****
 28 31 0 0 0
SMALL
GASTEIGER

@<TRIPOS>ATOM
      1 N         143.1838  138.3317  158.0778 N.3     1  UNL1       -0.2712
      2 C         143.4160  138.7213  156.6480 C.3     1  UNL1        0.0739
      3 C         143.1670  137.5145  155.7926 C.3     1  UNL1        0.0389
      4 C         142.7810  136.3792  156.6937 C.3     1  UNL1        0.0971
      5 C         142.7913  136.8842  158.1061 C.3     1  UNL1        0.0925
      6 N         142.4438  134.9837  156.2588 N.am    1  UNL1       -0.2589
      7 C         141.3509  134.5967  155.3071 C.2     1  UNL1        0.2338
      8 O         140.4034  135.5371  154.6231 O.2     1  UNL1       -0.2742
      9 C         141.3720  133.1041  155.1595 C.3     1  UNL1        0.1131
     10 C         142.4778  132.5687  156.0200 C.ar    1  UNL1        0.0007
     11 C         142.9672  131.1735  156.2726 C.ar    1  UNL1       -0.0026
     12 C         144.1190  130.9400  157.2047 C.ar    1  UNL1       -0.0002
     13 C         144.7814  132.1017  157.8841 C.ar    1  UNL1        0.0013
     14 C         144.2920  133.4969  157.6315 C.ar    1  UNL1        0.0146
     15 C         143.1402  133.7304  156.6994 C.ar    1  UNL1        0.0503
     16 C         143.3201  139.2317  159.2702 C.3     1  UNL1        0.0722
     17 C         138.6929  138.2964  162.5192 C.2     1  UNL1        0.4049
     18 O         137.4429  138.5650  161.7347 O.2     1  UNL1       -0.2262
     19 N         140.0357  138.4743  161.8746 N.am    1  UNL1       -0.2460
     20 C         140.1284  138.9208  160.4455 C.3     1  UNL1        0.0968
     21 C         141.4711  139.0986  159.8010 C.3     1  UNL1        0.0230
     22 C         142.7210  138.8300  160.5854 C.3     1  UNL1        0.0180
     23 C         144.1791  138.7009  160.9130 C.3     1  UNL1        0.0015
     24 C         142.6284  138.3835  162.0144 C.3     1  UNL1        0.0230
     25 C         141.2857  138.2057  162.6590 C.3     1  UNL1        0.0968
     26 O         138.6002  137.8499  163.9482 O.3     1  UNL1       -0.4345
     27 C         138.0910  138.4417  166.4261 C.3     1  UNL1        0.0513
     28 C         138.4985  138.8664  165.0464 C.3     1  UNL1        0.2102
@<TRIPOS>BOND
     1    27    28    1
     2    28    26    1
     3    26    17    1
     4    17    18    2
     5    17    19   am
     6    19    20    1
     7    20    21    1
     8    21    22    1
     9    22    23    1
    10    22    16    1
    11    16     1    1
    12     1     2    1
    13     2     3    1
    14     3     4    1
    15     4     6    1
    16     6     7   am
    17     7     8    2
    18     7     9    1
    19     9    10    1
    20    10    11   ar
    21    11    12   ar
    22    12    13   ar
    23    13    14   ar
    24    14    15   ar
    25     4     5    1
    26    22    24    1
    27    24    25    1
    28    25    19    1
    29     5     1    1
    30    15     6    1
    31    15    10   ar
@<TRIPOS>MOLECULE
*****
 28 31 0 0 0
SMALL
GASTEIGER

@<TRIPOS>ATOM
      1 N         143.5628  141.8481  164.2091 N.3     1  UNL1       -0.2712
      2 C         142.8313  140.6033  163.8023 C.3     1  UNL1        0.0739
      3 C         142.3071  139.9468  165.0450 C.3     1  UNL1        0.0389
      4 C         142.7146  140.7858  166.2197 C.3     1  UNL1        0.0971
      5 C         143.4906  141.9609  165.7031 C.3     1  UNL1        0.0925
      6 N         142.4011  140.5000  167.6585 N.am    1  UNL1       -0.2589
      7 C         142.8151  139.2791  168.4254 C.2     1  UNL1        0.2338
      8 O         143.6153  138.1298  167.8882 O.2     1  UNL1       -0.2742
      9 C         142.2883  139.4095  169.8238 C.3     1  UNL1        0.1131
     10 C         141.5488  140.7109  169.9212 C.ar    1  UNL1        0.0007
     11 C         140.8210  141.3693  171.0555 C.ar    1  UNL1       -0.0026
     12 C         140.1629  142.7017  170.8516 C.ar    1  UNL1       -0.0002
     13 C         140.2325  143.3756  169.5133 C.ar    1  UNL1        0.0013
     14 C         140.9603  142.7172  168.3790 C.ar    1  UNL1        0.0146
     15 C         141.6185  141.3849  168.5829 C.ar    1  UNL1        0.0503
     16 C         144.2464  142.8111  163.2842 C.3     1  UNL1        0.0722
     17 C         140.4349  145.2926  159.7976 C.2     1  UNL1        0.4049
     18 O         139.4873  146.1474  160.5861 O.2     1  UNL1       -0.2262
     19 N         141.5262  144.5394  160.4989 N.am    1  UNL1       -0.2460
     20 C         141.6699  144.6411  161.9886 C.3     1  UNL1        0.0968
     21 C         142.7612  143.8879  162.6898 C.3     1  UNL1        0.0230
     22 C         143.7087  143.0331  161.9015 C.3     1  UNL1        0.0180
     23 C         144.8430  142.1012  161.5934 C.3     1  UNL1        0.0015
     24 C         143.5650  142.9314  160.4119 C.3     1  UNL1        0.0230
     25 C         142.4737  143.6846  159.7106 C.3     1  UNL1        0.0968
     26 O         140.2911  145.1910  158.3080 O.3     1  UNL1       -0.4345
     27 C         141.5228  145.5782  156.0536 C.3     1  UNL1        0.0513
     28 C         141.1183  146.0656  157.4133 C.3     1  UNL1        0.2102
@<TRIPOS>BOND
     1    27    28    1
     2    28    26    1
     3    26    17    1
     4    17    18    2
     5    17    19   am
     6    19    20    1
     7    20    21    1
     8    21    22    1
     9    22    23    1
    10    22    16    1
    11    16     1    1
    12     1     2    1
    13     2     3    1
    14     3     4    1
    15     4     6    1
    16     6     7   am
    17     7     8    2
    18     7     9    1
    19     9    10    1
    20    10    11   ar
    21    11    12   ar
    22    12    13   ar
    23    13    14   ar
    24    14    15   ar
    25     4     5    1
    26    22    24    1
    27    24    25    1
    28    25    19    1
    29     5     1    1
    30    15     6    1
    31    15    10   ar
@<TRIPOS>MOLECULE
*****
 28 31 0 0 0
SMALL
GASTEIGER

@<TRIPOS>ATOM
      1 N         139.4966  140.0221  163.6150 N.3     1  UNL1       -0.2712
      2 C         138.0834  140.1176  163.1213 C.3     1  UNL1        0.0739
      3 C         137.9432  141.4046  162.3637 C.3     1  UNL1        0.0389
      4 C         139.2696  142.1045  162.3892 C.3     1  UNL1        0.0971
      5 C         140.2297  141.2501  163.1626 C.3     1  UNL1        0.0925
      6 N         139.5812  143.4266  161.7530 N.am    1  UNL1       -0.2589
      7 C         139.5922  144.7574  162.4452 C.2     1  UNL1        0.2338
      8 O         139.2934  144.9996  163.8950 O.2     1  UNL1       -0.2742
      9 C         139.9544  145.8033  161.4329 C.3     1  UNL1        0.1131
     10 C         140.1673  145.1191  160.1151 C.ar    1  UNL1        0.0007
     11 C         140.5414  145.6438  158.7606 C.ar    1  UNL1       -0.0026
     12 C         140.6848  144.6996  157.6040 C.ar    1  UNL1       -0.0002
     13 C         140.4542  143.2307  157.8018 C.ar    1  UNL1        0.0013
     14 C         140.0801  142.7060  159.1563 C.ar    1  UNL1        0.0146
     15 C         139.9367  143.6502  160.3130 C.ar    1  UNL1        0.0503
     16 C         140.0752  138.8963  164.4200 C.3     1  UNL1        0.0722
     17 C         140.1716  140.4556  169.9337 C.2     1  UNL1        0.4049
     18 O         138.7779  140.7073  170.4281 O.2     1  UNL1       -0.2262
     19 N         140.3984  140.0335  168.5122 N.am    1  UNL1       -0.2460
     20 C         139.2314  139.8632  167.5852 C.3     1  UNL1        0.0968
     21 C         139.4582  139.4411  166.1638 C.3     1  UNL1        0.0230
     22 C         140.8518  139.1894  165.6694 C.3     1  UNL1        0.0180
     23 C         141.9757  138.8358  164.7411 C.3     1  UNL1        0.0015
     24 C         142.0187  139.3597  166.5964 C.3     1  UNL1        0.0230
     25 C         141.7919  139.7818  168.0178 C.3     1  UNL1        0.0968
     26 O         141.3385  140.6259  170.8607 O.3     1  UNL1       -0.4345
     27 C         142.6971  142.7229  170.1491 C.3     1  UNL1        0.0513
     28 C         141.8620  141.9987  171.1630 C.3     1  UNL1        0.2102
@<TRIPOS>BOND
     1    27    28    1
     2    28    26    1
     3    26    17    1
     4    17    18    2
     5    17    19   am
     6    19    20    1
     7    20    21    1
     8    21    22    1
     9    22    23    1
    10    22    16    1
    11    16     1    1
    12     1     2    1
    13     2     3    1
    14     3     4    1
    15     4     6    1
    16     6     7   am
    17     7     8    2
    18     7     9    1
    19     9    10    1
    20    10    11   ar
    21    11    12   ar
    22    12    13   ar
    23    13    14   ar
    24    14    15   ar
    25     4     5    1
    26    22    24    1
    27    24    25    1
    28    25    19    1
    29     5     1    1
    30    15     6    1
    31    15    10   ar
@<TRIPOS>MOLECULE
*****
 28 31 0 0 0
SMALL
GASTEIGER

@<TRIPOS>ATOM
      1 N         138.9161  139.2527  164.5451 N.3     1  UNL1       -0.2712
      2 C         138.8204  140.7378  164.3565 C.3     1  UNL1        0.0739
      3 C         139.1989  141.3946  165.6508 C.3     1  UNL1        0.0389
      4 C         139.5285  140.3157  166.6393 C.3     1  UNL1        0.0971
      5 C         139.3537  138.9919  165.9559 C.3     1  UNL1        0.0925
      6 N         139.9575  140.5239  168.0615 N.am    1  UNL1       -0.2589
      7 C         139.2034  140.0879  169.2827 C.2     1  UNL1        0.2338
      8 O         137.8880  139.3672  169.2962 O.2     1  UNL1       -0.2742
      9 C         139.9958  140.4992  170.4881 C.3     1  UNL1        0.1131
     10 C         141.2396  141.1894  170.0118 C.ar    1  UNL1        0.0007
     11 C         142.3906  141.8059  170.7500 C.ar    1  UNL1       -0.0026
     12 C         143.5179  142.4377  169.9885 C.ar    1  UNL1       -0.0002
     13 C         143.4942  142.4529  168.4888 C.ar    1  UNL1        0.0013
     14 C         142.3432  141.8364  167.7506 C.ar    1  UNL1        0.0146
     15 C         141.2159  141.2046  168.5121 C.ar    1  UNL1        0.0503
     16 C         138.6253  138.2113  163.5053 C.3     1  UNL1        0.0722
     17 C         138.4489  139.9346  158.0426 C.2     1  UNL1        0.4049
     18 O         137.1602  140.6498  157.7636 O.2     1  UNL1       -0.2262
     19 N         138.7228  139.3897  159.4131 N.am    1  UNL1       -0.2460
     20 C         137.7079  139.5601  160.5045 C.3     1  UNL1        0.0968
     21 C         137.9818  139.0153  161.8749 C.3     1  UNL1        0.0230
     22 C         139.2704  138.3001  162.1540 C.3     1  UNL1        0.0180
     23 C         140.3350  137.5540  162.9024 C.3     1  UNL1        0.0015
     24 C         140.2852  138.1297  161.0626 C.3     1  UNL1        0.0230
     25 C         140.0113  138.6745  159.6922 C.3     1  UNL1        0.0968
     26 O         139.4637  139.7642  156.9512 O.3     1  UNL1       -0.4345
     27 C         139.7937  137.3244  156.1219 C.3     1  UNL1        0.0513
     28 C         139.2664  138.7112  155.9014 C.3     1  UNL1        0.2102
@<TRIPOS>BOND
     1    27    28    1
     2    28    26    1
     3    26    17    1
     4    17    18    2
     5    17    19   am
     6    19    20    1
     7    20    21    1
     8    21    22    1
     9    22    23    1
    10    22    16    1
    11    16     1    1
    12     1     2    1
    13     2     3    1
    14     3     4    1
    15     4     6    1
    16     6     7   am
    17     7     8    2
    18     7     9    1
    19     9    10    1
    20    10    11   ar
    21    11    12   ar
    22    12    13   ar
    23    13    14   ar
    24    14    15   ar
    25     4     5    1
    26    22    24    1
    27    24    25    1
    28    25    19    1
    29     5     1    1
    30    15     6    1
    31    15    10   ar
