@<TRIPOS>MOLECULE
*****
 37 41 0 0 0
SMALL
GASTEIGER

@<TRIPOS>ATOM
      1 C         139.5282  140.7119  166.2856 C.3     1  UNL1        0.0396
      2 C         139.5029  142.0935  165.7020 C.3     1  UNL1        0.0765
      3 N         138.4054  142.1453  164.6809 N.3     1  UNL1       -0.2721
      4 C         137.7523  140.7957  164.6334 C.3     1  UNL1        0.0725
      5 C         138.4463  139.9098  165.6252 C.3     1  UNL1        0.0220
      6 C         142.3537  139.2331  169.4604 C.ar    1  UNL1        0.1387
      7 C         142.7782  139.2377  168.0218 C.ar    1  UNL1        0.0366
      8 C         141.8364  139.7307  166.9635 C.ar    1  UNL1       -0.0011
      9 C         140.4701  140.2189  167.3439 C.ar    1  UNL1       -0.0209
     10 C         140.0455  140.2143  168.7826 C.ar    1  UNL1       -0.0011
     11 C         140.9874  139.7213  169.8408 C.ar    1  UNL1        0.0366
     12 C         143.6184  137.2784  170.6135 C.3     1  UNL1        0.2525
     13 O         143.2956  138.7401  170.5186 O.3     1  UNL1       -0.4714
     14 C         138.0272  143.3373  163.8527 C.3     1  UNL1        0.0768
     15 C         138.9556  144.5119  163.7610 C.3     1  UNL1        0.0438
     16 C         140.3480  144.3281  163.2342 C.ar    1  UNL1       -0.0176
     17 C         140.5612  143.8713  161.8214 C.ar    1  UNL1       -0.0009
     18 C         141.9536  143.6875  161.2948 C.ar    1  UNL1        0.0397
     19 C         143.1328  143.9605  162.1808 C.ar    1  UNL1        0.1724
     20 C         142.9196  144.4173  163.5935 C.ar    1  UNL1        0.1721
     21 C         141.5271  144.6011  164.1202 C.ar    1  UNL1        0.0358
     22 O         144.5251  143.7766  161.6540 O.3     1  UNL1       -0.4684
     23 C         144.8841  142.5291  160.9023 C.3     1  UNL1        0.2526
     24 O         144.0988  144.6903  164.4795 O.3     1  UNL1       -0.4684
     25 C         144.5994  143.6263  165.4107 C.3     1  UNL1        0.2526
     26 C         138.1163  138.4740  165.9071 C.3     1  UNL1        0.0148
     27 C         138.9835  137.3825  165.3535 C.3     1  UNL1        0.1238
     28 C         139.8635  137.6517  164.1690 C.2     1  UNL1        0.3512
     29 N         141.3635  137.6586  164.1684 N.2     1  UNL1       -0.0350
     30 C         141.8251  137.9725  162.7762 C.2     1  UNL1        0.2318
     31 C         143.1945  138.1121  162.1804 C.2     1  UNL1        0.0507
     32 C         143.3493  138.4388  160.7246 C.2     1  UNL1        0.0114
     33 C         142.1346  138.6259  159.8647 C.2     1  UNL1        0.0440
     34 CL        142.2894  138.9527  158.4089 Cl      1  UNL1       -0.0864
     35 C         140.7651  138.4863  160.4605 C.3     1  UNL1        0.1155
     36 C         140.6104  138.1596  161.9163 C.2     1  UNL1        0.2183
     37 N         139.3981  137.9614  162.7771 N.2     1  UNL1       -0.0389
@<TRIPOS>BOND
     1    12    13    1
     2    13     6    1
     3     6     7   ar
     4     7     8   ar
     5     8     9   ar
     6     1     9    1
     7     1     2    1
     8     2     3    1
     9     3    14    1
    10    14    15    1
    11    15    16    1
    12    16    17   ar
    13    17    18   ar
    14    18    19   ar
    15    19    22    1
    16    22    23    1
    17    19    20   ar
    18    20    24    1
    19    24    25    1
    20    20    21   ar
    21     3     4    1
    22     4     5    1
    23     5    26    1
    24    26    27    1
    25    27    28    1
    26    28    29    2
    27    29    30    1
    28    30    31    2
    29    31    32    1
    30    32    33    2
    31    33    34    1
    32    33    35    1
    33    35    36    1
    34    36    37    2
    35     9    10   ar
    36    10    11   ar
    37    11     6   ar
    38     5     1    1
    39    37    28    1
    40    21    16   ar
    41    36    30    1
@<TRIPOS>MOLECULE
*****
 37 41 0 0 0
SMALL
GASTEIGER

@<TRIPOS>ATOM
      1 C         139.6674  141.0339  166.2258 C.3     1  UNL1        0.0396
      2 C         139.6532  142.4579  165.7546 C.3     1  UNL1        0.0765
      3 N         138.6184  142.5787  164.6754 N.3     1  UNL1       -0.2721
      4 C         137.9930  141.2294  164.4796 C.3     1  UNL1        0.0725
      5 C         138.6414  140.2746  165.4378 C.3     1  UNL1        0.0220
      6 C         142.3219  139.3375  169.4391 C.ar    1  UNL1        0.1387
      7 C         142.8225  139.4387  168.0288 C.ar    1  UNL1        0.0366
      8 C         141.9376  140.0042  166.9577 C.ar    1  UNL1       -0.0011
      9 C         140.5523  140.4684  167.2969 C.ar    1  UNL1       -0.0209
     10 C         140.0516  140.3672  168.7073 C.ar    1  UNL1       -0.0011
     11 C         140.9365  139.8017  169.7784 C.ar    1  UNL1        0.0366
     12 C         143.4728  137.2967  170.5619 C.3     1  UNL1        0.2525
     13 O         143.2068  138.7720  170.5102 O.3     1  UNL1       -0.4714
     14 C         138.2701  143.8293  163.9240 C.3     1  UNL1        0.0768
     15 C         139.3325  144.8449  163.6245 C.3     1  UNL1        0.0438
     16 C         140.7166  144.3970  163.2589 C.ar    1  UNL1       -0.0176
     17 C         141.9067  145.0115  163.9342 C.ar    1  UNL1       -0.0009
     18 C         143.2908  144.5635  163.5685 C.ar    1  UNL1        0.0397
     19 C         143.4847  143.5009  162.5277 C.ar    1  UNL1        0.1724
     20 C         142.2946  142.8863  161.8525 C.ar    1  UNL1        0.1721
     21 C         140.9106  143.3344  162.2181 C.ar    1  UNL1        0.0358
     22 O         144.8688  143.0529  162.1621 O.3     1  UNL1       -0.4684
     23 C         145.5352  141.9611  162.9456 C.3     1  UNL1        0.2526
     24 O         142.4885  141.8237  160.8117 O.3     1  UNL1       -0.4684
     25 C         142.7946  142.2088  159.3947 C.3     1  UNL1        0.2526
     26 C         138.3201  138.8166  165.5826 C.3     1  UNL1        0.0148
     27 C         139.3676  137.7847  165.2859 C.3     1  UNL1        0.1238
     28 C         140.2783  137.9580  164.1067 C.2     1  UNL1        0.3512
     29 N         141.7714  138.0919  164.1580 N.2     1  UNL1       -0.0350
     30 C         142.2718  138.2445  162.7522 C.2     1  UNL1        0.2318
     31 C         143.6524  138.4144  162.1911 C.2     1  UNL1        0.0507
     32 C         143.8492  138.5447  160.7098 C.2     1  UNL1        0.0114
     33 C         142.6652  138.5051  159.7896 C.2     1  UNL1        0.0440
     34 CL        142.8620  138.6354  158.3082 Cl      1  UNL1       -0.0864
     35 C         141.2846  138.3352  160.3507 C.3     1  UNL1        0.1155
     36 C         141.0878  138.2049  161.8320 C.2     1  UNL1        0.2183
     37 N         139.8558  138.0279  162.6691 N.2     1  UNL1       -0.0389
@<TRIPOS>BOND
     1    12    13    1
     2    13     6    1
     3     6     7   ar
     4     7     8   ar
     5     8     9   ar
     6     1     9    1
     7     1     2    1
     8     2     3    1
     9     3    14    1
    10    14    15    1
    11    15    16    1
    12    16    17   ar
    13    17    18   ar
    14    18    19   ar
    15    19    22    1
    16    22    23    1
    17    19    20   ar
    18    20    24    1
    19    24    25    1
    20    20    21   ar
    21     3     4    1
    22     4     5    1
    23     5    26    1
    24    26    27    1
    25    27    28    1
    26    28    29    2
    27    29    30    1
    28    30    31    2
    29    31    32    1
    30    32    33    2
    31    33    34    1
    32    33    35    1
    33    35    36    1
    34    36    37    2
    35     9    10   ar
    36    10    11   ar
    37    11     6   ar
    38     5     1    1
    39    37    28    1
    40    21    16   ar
    41    36    30    1
@<TRIPOS>MOLECULE
*****
 37 41 0 0 0
SMALL
GASTEIGER

@<TRIPOS>ATOM
      1 C         142.5740  143.3758  161.6187 C.3     1  UNL1        0.0396
      2 C         143.7206  142.4137  161.7170 C.3     1  UNL1        0.0765
      3 N         144.3837  142.6170  163.0470 N.3     1  UNL1       -0.2721
      4 C         143.6469  143.7048  163.7708 C.3     1  UNL1        0.0725
      5 C         142.5284  144.1738  162.8880 C.3     1  UNL1        0.0220
      6 C         139.7642  143.7945  158.1289 C.ar    1  UNL1        0.1387
      7 C         141.1357  144.3984  158.0641 C.ar    1  UNL1        0.0366
      8 C         142.0723  144.2588  159.2274 C.ar    1  UNL1       -0.0011
      9 C         141.6374  143.5154  160.4554 C.ar    1  UNL1       -0.0209
     10 C         140.2659  142.9114  160.5202 C.ar    1  UNL1       -0.0011
     11 C         139.3293  143.0510  159.3569 C.ar    1  UNL1        0.0366
     12 C         139.2105  144.7871  155.7926 C.3     1  UNL1        0.2525
     13 O         138.8277  143.9341  156.9655 O.3     1  UNL1       -0.4714
     14 C         145.5745  141.8647  163.5627 C.3     1  UNL1        0.0768
     15 C         145.3944  140.5138  164.1894 C.3     1  UNL1        0.0438
     16 C         144.2145  139.6656  163.8173 C.ar    1  UNL1       -0.0176
     17 C         143.0498  139.5478  164.7551 C.ar    1  UNL1       -0.0009
     18 C         141.8700  138.6996  164.3828 C.ar    1  UNL1        0.0397
     19 C         141.8549  137.9692  163.0728 C.ar    1  UNL1        0.1724
     20 C         143.0196  138.0870  162.1349 C.ar    1  UNL1        0.1721
     21 C         144.1994  138.9353  162.5072 C.ar    1  UNL1        0.0358
     22 O         140.6750  137.1210  162.7006 O.3     1  UNL1       -0.4684
     23 C         139.2837  137.6542  162.8735 C.3     1  UNL1        0.2526
     24 O         143.0044  137.3567  160.8248 O.3     1  UNL1       -0.4684
     25 C         142.6380  138.0837  159.5651 C.3     1  UNL1        0.2526
     26 C         141.5383  145.2515  163.2169 C.3     1  UNL1        0.0148
     27 C         140.1310  144.8890  163.5885 C.3     1  UNL1        0.1238
     28 C         139.8618  143.6467  164.3850 C.2     1  UNL1        0.3512
     29 N         140.4919  143.2874  165.6979 N.2     1  UNL1       -0.0350
     30 C         139.9348  141.9643  166.1328 C.2     1  UNL1        0.2318
     31 C         140.1889  141.1177  167.3446 C.2     1  UNL1        0.0507
     32 C         139.4687  139.8127  167.5123 C.2     1  UNL1        0.0114
     33 C         138.4943  139.3543  166.4680 C.2     1  UNL1        0.0440
     34 CL        137.7740  138.0492  166.6357 Cl      1  UNL1       -0.0864
     35 C         138.2402  140.2009  165.2561 C.3     1  UNL1        0.1155
     36 C         138.9605  141.5059  165.0885 C.2     1  UNL1        0.2183
     37 N         138.9154  142.5457  164.0083 N.2     1  UNL1       -0.0389
@<TRIPOS>BOND
     1    12    13    1
     2    13     6    1
     3     6     7   ar
     4     7     8   ar
     5     8     9   ar
     6     1     9    1
     7     1     2    1
     8     2     3    1
     9     3    14    1
    10    14    15    1
    11    15    16    1
    12    16    17   ar
    13    17    18   ar
    14    18    19   ar
    15    19    22    1
    16    22    23    1
    17    19    20   ar
    18    20    24    1
    19    24    25    1
    20    20    21   ar
    21     3     4    1
    22     4     5    1
    23     5    26    1
    24    26    27    1
    25    27    28    1
    26    28    29    2
    27    29    30    1
    28    30    31    2
    29    31    32    1
    30    32    33    2
    31    33    34    1
    32    33    35    1
    33    35    36    1
    34    36    37    2
    35     9    10   ar
    36    10    11   ar
    37    11     6   ar
    38     5     1    1
    39    37    28    1
    40    21    16   ar
    41    36    30    1
@<TRIPOS>MOLECULE
*****
 37 41 0 0 0
SMALL
GASTEIGER

@<TRIPOS>ATOM
      1 C         139.4023  139.2323  162.4744 C.3     1  UNL1        0.0396
      2 C         138.6085  139.9884  161.4505 C.3     1  UNL1        0.0765
      3 N         139.1767  139.6735  160.0985 N.3     1  UNL1       -0.2721
      4 C         140.3216  138.7228  160.2867 C.3     1  UNL1        0.0725
      5 C         140.4610  138.4501  161.7552 C.3     1  UNL1        0.0220
      6 C         138.7259  139.2991  166.9227 C.ar    1  UNL1        0.1387
      7 C         138.4473  138.0499  166.1405 C.ar    1  UNL1        0.0366
      8 C         138.6728  138.0277  164.6577 C.ar    1  UNL1       -0.0011
      9 C         139.1768  139.2545  163.9572 C.ar    1  UNL1       -0.0209
     10 C         139.4554  140.5038  164.7395 C.ar    1  UNL1       -0.0011
     11 C         139.2299  140.5260  166.2223 C.ar    1  UNL1        0.0366
     12 C         139.2489  140.2980  169.2634 C.3     1  UNL1        0.2525
     13 O         138.5004  139.3213  168.4055 O.3     1  UNL1       -0.4714
     14 C         138.6862  140.2143  158.7882 C.3     1  UNL1        0.0768
     15 C         139.2081  141.5235  158.2745 C.3     1  UNL1        0.0438
     16 C         140.1795  142.3180  159.0962 C.ar    1  UNL1       -0.0176
     17 C         141.6381  141.9683  159.0792 C.ar    1  UNL1       -0.0009
     18 C         142.6094  142.7629  159.9009 C.ar    1  UNL1        0.0397
     19 C         142.1222  143.9071  160.7396 C.ar    1  UNL1        0.1724
     20 C         140.6636  144.2568  160.7567 C.ar    1  UNL1        0.1721
     21 C         139.6923  143.4622  159.9349 C.ar    1  UNL1        0.0358
     22 O         143.0936  144.7016  161.5613 O.3     1  UNL1       -0.4684
     23 C         143.2331  144.4285  163.0296 C.3     1  UNL1        0.2526
     24 O         140.1764  145.4010  161.5954 O.3     1  UNL1       -0.4684
     25 C         139.3399  145.1362  162.8119 C.3     1  UNL1        0.2526
     26 C         141.4801  137.5528  162.3925 C.3     1  UNL1        0.0148
     27 C         142.7755  138.1231  162.8892 C.3     1  UNL1        0.1238
     28 C         142.8087  138.9067  164.1679 C.2     1  UNL1        0.3512
     29 N         142.9960  140.3901  164.2883 N.2     1  UNL1       -0.0350
     30 C         142.9635  140.7447  165.7454 C.2     1  UNL1        0.2318
     31 C         143.0959  142.0554  166.4626 C.2     1  UNL1        0.0507
     32 C         143.0209  142.1019  167.9600 C.2     1  UNL1        0.0114
     33 C         142.8135  140.8376  168.7402 C.2     1  UNL1        0.0440
     34 CL        142.7385  140.8842  170.2376 Cl      1  UNL1       -0.0864
     35 C         142.6810  139.5269  168.0229 C.3     1  UNL1        0.1155
     36 C         142.7560  139.4804  166.5256 C.2     1  UNL1        0.2183
     37 N         142.6603  138.3445  165.5506 N.2     1  UNL1       -0.0389
@<TRIPOS>BOND
     1    12    13    1
     2    13     6    1
     3     6     7   ar
     4     7     8   ar
     5     8     9   ar
     6     1     9    1
     7     1     2    1
     8     2     3    1
     9     3    14    1
    10    14    15    1
    11    15    16    1
    12    16    17   ar
    13    17    18   ar
    14    18    19   ar
    15    19    22    1
    16    22    23    1
    17    19    20   ar
    18    20    24    1
    19    24    25    1
    20    20    21   ar
    21     3     4    1
    22     4     5    1
    23     5    26    1
    24    26    27    1
    25    27    28    1
    26    28    29    2
    27    29    30    1
    28    30    31    2
    29    31    32    1
    30    32    33    2
    31    33    34    1
    32    33    35    1
    33    35    36    1
    34    36    37    2
    35     9    10   ar
    36    10    11   ar
    37    11     6   ar
    38     5     1    1
    39    37    28    1
    40    21    16   ar
    41    36    30    1
@<TRIPOS>MOLECULE
*****
 37 41 0 0 0
SMALL
GASTEIGER

@<TRIPOS>ATOM
      1 C         142.6689  139.4898  164.9665 C.3     1  UNL1        0.0396
      2 C         141.4730  138.8472  164.3285 C.3     1  UNL1        0.0765
      3 N         141.8608  138.4176  162.9446 N.3     1  UNL1       -0.2721
      4 C         143.2963  138.7948  162.7273 C.3     1  UNL1        0.0725
      5 C         143.7957  139.4575  163.9769 C.3     1  UNL1        0.0220
      6 C         142.8449  141.2124  169.1200 C.ar    1  UNL1        0.1387
      7 C         142.9033  142.1212  167.9281 C.ar    1  UNL1        0.0366
      8 C         142.8446  141.5470  166.5436 C.ar    1  UNL1       -0.0011
      9 C         142.7275  140.0641  166.3510 C.ar    1  UNL1       -0.0209
     10 C         142.6692  139.1552  167.5429 C.ar    1  UNL1       -0.0011
     11 C         142.7278  139.7294  168.9274 C.ar    1  UNL1        0.0366
     12 C         143.0008  143.2709  170.6973 C.3     1  UNL1        0.2525
     13 O         142.9036  141.7866  170.5045 O.3     1  UNL1       -0.4714
     14 C         140.9696  137.7314  161.9523 C.3     1  UNL1        0.0768
     15 C         139.4893  137.9718  161.9817 C.3     1  UNL1        0.0438
     16 C         138.9579  139.3439  162.2735 C.ar    1  UNL1       -0.0176
     17 C         138.3607  139.6471  163.6157 C.ar    1  UNL1       -0.0009
     18 C         137.8294  141.0192  163.9073 C.ar    1  UNL1        0.0397
     19 C         137.8953  142.0880  162.8569 C.ar    1  UNL1        0.1724
     20 C         138.4925  141.7847  161.5148 C.ar    1  UNL1        0.1721
     21 C         139.0238  140.4126  161.2231 C.ar    1  UNL1        0.0358
     22 O         137.3639  143.4601  163.1487 O.3     1  UNL1       -0.4684
     23 C         138.2718  144.5111  163.7155 C.3     1  UNL1        0.2526
     24 O         138.5584  142.8535  160.4644 O.3     1  UNL1       -0.4684
     25 C         138.5256  142.4806  159.0119 C.3     1  UNL1        0.2526
     26 C         145.1790  139.9936  164.1981 C.3     1  UNL1        0.0148
     27 C         145.5247  141.3837  163.7528 C.3     1  UNL1        0.1238
     28 C         144.5386  142.1819  162.9525 C.2     1  UNL1        0.3512
     29 N         144.3592  142.1250  161.4644 N.2     1  UNL1       -0.0350
     30 C         143.2685  143.0851  161.0919 C.2     1  UNL1        0.2318
     31 C         142.6619  143.4512  159.7698 C.2     1  UNL1        0.0507
     32 C         141.5607  144.4676  159.7057 C.2     1  UNL1        0.0114
     33 C         141.0660  145.1178  160.9637 C.2     1  UNL1        0.0440
     34 CL        139.9647  146.1342  160.8995 Cl      1  UNL1       -0.0864
     35 C         141.6726  144.7517  162.2858 C.3     1  UNL1        0.1155
     36 C         142.7739  143.7353  162.3499 C.2     1  UNL1        0.2183
     37 N         143.5588  143.1771  163.4998 N.2     1  UNL1       -0.0389
@<TRIPOS>BOND
     1    12    13    1
     2    13     6    1
     3     6     7   ar
     4     7     8   ar
     5     8     9   ar
     6     1     9    1
     7     1     2    1
     8     2     3    1
     9     3    14    1
    10    14    15    1
    11    15    16    1
    12    16    17   ar
    13    17    18   ar
    14    18    19   ar
    15    19    22    1
    16    22    23    1
    17    19    20   ar
    18    20    24    1
    19    24    25    1
    20    20    21   ar
    21     3     4    1
    22     4     5    1
    23     5    26    1
    24    26    27    1
    25    27    28    1
    26    28    29    2
    27    29    30    1
    28    30    31    2
    29    31    32    1
    30    32    33    2
    31    33    34    1
    32    33    35    1
    33    35    36    1
    34    36    37    2
    35     9    10   ar
    36    10    11   ar
    37    11     6   ar
    38     5     1    1
    39    37    28    1
    40    21    16   ar
    41    36    30    1
@<TRIPOS>MOLECULE
*****
 37 41 0 0 0
SMALL
GASTEIGER

@<TRIPOS>ATOM
      1 C         142.4847  139.0529  164.9145 C.3     1  UNL1        0.0396
      2 C         143.5389  139.1422  163.8512 C.3     1  UNL1        0.0765
      3 N         143.0957  138.3059  162.6876 N.3     1  UNL1       -0.2721
      4 C         141.7675  137.6996  163.0317 C.3     1  UNL1        0.0725
      5 C         141.3899  138.1613  164.4081 C.3     1  UNL1        0.0220
      6 C         142.5882  141.1003  168.9204 C.ar    1  UNL1        0.1387
      7 C         142.6175  139.6026  168.8426 C.ar    1  UNL1        0.0366
      8 C         142.5830  138.9202  167.5073 C.ar    1  UNL1       -0.0011
      9 C         142.5192  139.7353  166.2498 C.ar    1  UNL1       -0.0209
     10 C         142.4900  141.2331  166.3276 C.ar    1  UNL1       -0.0011
     11 C         142.5245  141.9155  167.6629 C.ar    1  UNL1        0.0366
     12 C         141.6511  141.3846  171.3268 C.3     1  UNL1        0.2525
     13 O         142.6228  141.7828  170.2557 O.3     1  UNL1       -0.4714
     14 C         143.8484  138.1101  161.4050 C.3     1  UNL1        0.0768
     15 C         144.0067  139.2528  160.4463 C.3     1  UNL1        0.0438
     16 C         143.9732  140.6651  160.9506 C.ar    1  UNL1       -0.0176
     17 C         144.9436  141.1081  162.0053 C.ar    1  UNL1       -0.0009
     18 C         144.9100  142.5204  162.5095 C.ar    1  UNL1        0.0397
     19 C         143.9062  143.4897  161.9593 C.ar    1  UNL1        0.1724
     20 C         142.9359  143.0467  160.9046 C.ar    1  UNL1        0.1721
     21 C         142.9694  141.6344  160.4004 C.ar    1  UNL1        0.0358
     22 O         143.8728  144.9019  162.4636 O.3     1  UNL1       -0.4684
     23 C         143.0834  145.2407  163.6933 C.3     1  UNL1        0.2526
     24 O         141.9321  144.0160  160.3544 O.3     1  UNL1       -0.4684
     25 C         141.0985  143.6386  159.1658 C.3     1  UNL1        0.2526
     26 C         140.1374  137.7956  165.1480 C.3     1  UNL1        0.0148
     27 C         138.8991  138.6259  164.9828 C.3     1  UNL1        0.1238
     28 C         139.0131  140.0919  164.6867 C.2     1  UNL1        0.3512
     29 N         139.0898  141.1931  165.7023 N.2     1  UNL1       -0.0350
     30 C         139.1945  142.4960  164.9664 C.2     1  UNL1        0.2318
     31 C         139.2992  143.9136  165.4453 C.2     1  UNL1        0.0507
     32 C         139.3920  145.0353  164.4537 C.2     1  UNL1        0.0114
     33 C         139.3800  144.7393  162.9832 C.2     1  UNL1        0.0440
     34 CL        139.4728  145.8610  161.9916 Cl      1  UNL1       -0.0864
     35 C         139.2753  143.3217  162.5044 C.3     1  UNL1        0.1155
     36 C         139.1826  142.2000  163.4960 C.2     1  UNL1        0.2183
     37 N         139.0705  140.7142  163.3231 N.2     1  UNL1       -0.0389
@<TRIPOS>BOND
     1    12    13    1
     2    13     6    1
     3     6     7   ar
     4     7     8   ar
     5     8     9   ar
     6     1     9    1
     7     1     2    1
     8     2     3    1
     9     3    14    1
    10    14    15    1
    11    15    16    1
    12    16    17   ar
    13    17    18   ar
    14    18    19   ar
    15    19    22    1
    16    22    23    1
    17    19    20   ar
    18    20    24    1
    19    24    25    1
    20    20    21   ar
    21     3     4    1
    22     4     5    1
    23     5    26    1
    24    26    27    1
    25    27    28    1
    26    28    29    2
    27    29    30    1
    28    30    31    2
    29    31    32    1
    30    32    33    2
    31    33    34    1
    32    33    35    1
    33    35    36    1
    34    36    37    2
    35     9    10   ar
    36    10    11   ar
    37    11     6   ar
    38     5     1    1
    39    37    28    1
    40    21    16   ar
    41    36    30    1
@<TRIPOS>MOLECULE
*****
 37 41 0 0 0
SMALL
GASTEIGER

@<TRIPOS>ATOM
      1 C         142.5140  139.0592  164.6975 C.3     1  UNL1        0.0396
      2 C         143.5474  139.0747  163.6103 C.3     1  UNL1        0.0765
      3 N         143.0873  138.1525  162.5204 N.3     1  UNL1       -0.2721
      4 C         141.7696  137.5671  162.9339 C.3     1  UNL1        0.0725
      5 C         141.4153  138.1275  164.2795 C.3     1  UNL1        0.0220
      6 C         142.6809  141.3977  168.5385 C.ar    1  UNL1        0.1387
      7 C         142.6933  139.8981  168.5723 C.ar    1  UNL1        0.0366
      8 C         142.6377  139.1187  167.2919 C.ar    1  UNL1       -0.0011
      9 C         142.5696  139.8387  165.9779 C.ar    1  UNL1       -0.0209
     10 C         142.5571  141.3383  165.9441 C.ar    1  UNL1       -0.0011
     11 C         142.6128  142.1178  167.2245 C.ar    1  UNL1        0.0366
     12 C         141.9178  141.7420  170.9980 C.3     1  UNL1        0.2525
     13 O         142.7365  142.1771  169.8189 O.3     1  UNL1       -0.4714
     14 C         143.8168  137.8660  161.2415 C.3     1  UNL1        0.0768
     15 C         143.5863  138.7296  160.0368 C.3     1  UNL1        0.0438
     16 C         142.4292  138.4502  159.1241 C.ar    1  UNL1       -0.0176
     17 C         142.6191  137.5801  157.9171 C.ar    1  UNL1       -0.0009
     18 C         141.4619  137.3008  157.0044 C.ar    1  UNL1        0.0397
     19 C         140.1149  137.8916  157.2987 C.ar    1  UNL1        0.1724
     20 C         139.9250  138.7617  158.5057 C.ar    1  UNL1        0.1721
     21 C         141.0822  139.0410  159.4184 C.ar    1  UNL1        0.0358
     22 O         138.9578  137.6123  156.3859 O.3     1  UNL1       -0.4684
     23 C         138.7686  138.4302  155.1429 C.3     1  UNL1        0.2526
     24 O         138.5781  139.3525  158.7999 O.3     1  UNL1       -0.4684
     25 C         138.1737  140.6504  158.1660 C.3     1  UNL1        0.2526
     26 C         140.1793  137.8116  165.0685 C.3     1  UNL1        0.0148
     27 C         138.9340  138.6235  164.8686 C.3     1  UNL1        0.1238
     28 C         139.0335  140.0968  164.6047 C.2     1  UNL1        0.3512
     29 N         139.0413  141.1798  165.6424 N.2     1  UNL1       -0.0350
     30 C         139.1553  142.4981  164.9358 C.2     1  UNL1        0.2318
     31 C         139.2102  143.9081  165.4445 C.2     1  UNL1        0.0507
     32 C         139.3276  145.0497  164.4788 C.2     1  UNL1        0.0114
     33 C         139.3902  144.7814  163.0043 C.2     1  UNL1        0.0440
     34 CL        139.5077  145.9231  162.0385 Cl      1  UNL1       -0.0864
     35 C         139.3353  143.3714  162.4956 C.3     1  UNL1        0.1155
     36 C         139.2179  142.2297  163.4614 C.2     1  UNL1        0.2183
     37 N         139.1426  140.7457  163.2567 N.2     1  UNL1       -0.0389
@<TRIPOS>BOND
     1    12    13    1
     2    13     6    1
     3     6     7   ar
     4     7     8   ar
     5     8     9   ar
     6     1     9    1
     7     1     2    1
     8     2     3    1
     9     3    14    1
    10    14    15    1
    11    15    16    1
    12    16    17   ar
    13    17    18   ar
    14    18    19   ar
    15    19    22    1
    16    22    23    1
    17    19    20   ar
    18    20    24    1
    19    24    25    1
    20    20    21   ar
    21     3     4    1
    22     4     5    1
    23     5    26    1
    24    26    27    1
    25    27    28    1
    26    28    29    2
    27    29    30    1
    28    30    31    2
    29    31    32    1
    30    32    33    2
    31    33    34    1
    32    33    35    1
    33    35    36    1
    34    36    37    2
    35     9    10   ar
    36    10    11   ar
    37    11     6   ar
    38     5     1    1
    39    37    28    1
    40    21    16   ar
    41    36    30    1
@<TRIPOS>MOLECULE
*****
 37 41 0 0 0
SMALL
GASTEIGER

@<TRIPOS>ATOM
      1 C         139.6104  139.3686  164.9330 C.3     1  UNL1        0.0396
      2 C         138.4571  139.5793  163.9973 C.3     1  UNL1        0.0765
      3 N         138.6145  138.6300  162.8466 N.3     1  UNL1       -0.2721
      4 C         139.8650  137.8326  163.0711 C.3     1  UNL1        0.0725
      5 C         140.4806  138.2892  164.3607 C.3     1  UNL1        0.0220
      6 C         140.3330  141.5859  168.7815 C.ar    1  UNL1        0.1387
      7 C         139.4831  140.3500  168.7763 C.ar    1  UNL1        0.0366
      8 C         139.2423  139.6109  167.4934 C.ar    1  UNL1       -0.0011
      9 C         139.8513  140.1077  166.2159 C.ar    1  UNL1       -0.0209
     10 C         140.7012  141.3438  166.2211 C.ar    1  UNL1       -0.0011
     11 C         140.9420  142.0828  167.5040 C.ar    1  UNL1        0.0366
     12 C         141.7151  143.2927  170.1696 C.3     1  UNL1        0.2525
     13 O         140.5738  142.3250  170.0644 O.3     1  UNL1       -0.4714
     14 C         137.6846  138.5008  161.6767 C.3     1  UNL1        0.0768
     15 C         137.3819  139.6968  160.8235 C.3     1  UNL1        0.0438
     16 C         138.3656  140.8260  160.7388 C.ar    1  UNL1       -0.0176
     17 C         139.6617  140.6383  160.0075 C.ar    1  UNL1       -0.0009
     18 C         140.6453  141.7676  159.9228 C.ar    1  UNL1        0.0397
     19 C         140.3329  143.0845  160.5693 C.ar    1  UNL1        0.1724
     20 C         139.0367  143.2722  161.3006 C.ar    1  UNL1        0.1721
     21 C         138.0531  142.1429  161.3853 C.ar    1  UNL1        0.0358
     22 O         141.3166  144.2137  160.4846 O.3     1  UNL1       -0.4684
     23 C         141.1566  145.2704  159.4320 C.3     1  UNL1        0.2526
     24 O         138.7243  144.5892  161.9472 O.3     1  UNL1       -0.4684
     25 C         139.1291  144.8412  163.3693 C.3     1  UNL1        0.2526
     26 C         141.7443  137.7592  164.9707 C.3     1  UNL1        0.0148
     27 C         143.0323  138.5081  164.7972 C.3     1  UNL1        0.1238
     28 C         143.3083  139.2391  163.5167 C.2     1  UNL1        0.3512
     29 N         143.5975  140.7048  163.3829 N.2     1  UNL1       -0.0350
     30 C         143.8115  141.0043  161.9288 C.2     1  UNL1        0.2318
     31 C         144.1289  142.2776  161.2024 C.2     1  UNL1        0.0507
     32 C         144.2894  142.2703  159.7110 C.2     1  UNL1        0.0114
     33 C         144.1325  140.9896  158.9461 C.2     1  UNL1        0.0440
     34 CL        144.2930  140.9823  157.4547 Cl      1  UNL1       -0.0864
     35 C         143.8150  139.7162  159.6725 C.3     1  UNL1        0.1155
     36 C         143.6545  139.7236  161.1638 C.2     1  UNL1        0.2183
     37 N         143.3435  138.6327  162.1453 N.2     1  UNL1       -0.0389
@<TRIPOS>BOND
     1    12    13    1
     2    13     6    1
     3     6     7   ar
     4     7     8   ar
     5     8     9   ar
     6     1     9    1
     7     1     2    1
     8     2     3    1
     9     3    14    1
    10    14    15    1
    11    15    16    1
    12    16    17   ar
    13    17    18   ar
    14    18    19   ar
    15    19    22    1
    16    22    23    1
    17    19    20   ar
    18    20    24    1
    19    24    25    1
    20    20    21   ar
    21     3     4    1
    22     4     5    1
    23     5    26    1
    24    26    27    1
    25    27    28    1
    26    28    29    2
    27    29    30    1
    28    30    31    2
    29    31    32    1
    30    32    33    2
    31    33    34    1
    32    33    35    1
    33    35    36    1
    34    36    37    2
    35     9    10   ar
    36    10    11   ar
    37    11     6   ar
    38     5     1    1
    39    37    28    1
    40    21    16   ar
    41    36    30    1
@<TRIPOS>MOLECULE
*****
 37 41 0 0 0
SMALL
GASTEIGER

@<TRIPOS>ATOM
      1 C         141.3889  144.2468  161.4988 C.3     1  UNL1        0.0396
      2 C         142.7460  143.7237  161.8660 C.3     1  UNL1        0.0765
      3 N         142.8740  143.7751  163.3596 N.3     1  UNL1       -0.2721
      4 C         141.5960  144.3299  163.9156 C.3     1  UNL1        0.0725
      5 C         140.6782  144.6215  162.7655 C.3     1  UNL1        0.0220
      6 C         139.7396  144.6255  157.3292 C.ar    1  UNL1        0.1387
      7 C         140.5746  145.7287  157.9084 C.ar    1  UNL1        0.0366
      8 C         141.1244  145.6024  159.2983 C.ar    1  UNL1       -0.0011
      9 C         140.8391  144.3731  160.1089 C.ar    1  UNL1       -0.0209
     10 C         140.0041  143.2698  159.5297 C.ar    1  UNL1       -0.0011
     11 C         139.4543  143.3960  158.1398 C.ar    1  UNL1        0.0366
     12 C         138.7619  146.0927  155.4209 C.3     1  UNL1        0.2525
     13 O         139.1898  144.7517  155.9393 O.3     1  UNL1       -0.4714
     14 C         144.0699  143.3469  164.1573 C.3     1  UNL1        0.0768
     15 C         144.1884  141.9275  164.6280 C.3     1  UNL1        0.0438
     16 C         143.3247  141.4352  165.7512 C.ar    1  UNL1       -0.0176
     17 C         142.7224  140.0628  165.6881 C.ar    1  UNL1       -0.0009
     18 C         141.8587  139.5706  166.8114 C.ar    1  UNL1        0.0397
     19 C         141.5974  140.4505  167.9977 C.ar    1  UNL1        0.1724
     20 C         142.1997  141.8229  168.0608 C.ar    1  UNL1        0.1721
     21 C         143.0634  142.3151  166.9375 C.ar    1  UNL1        0.0358
     22 O         140.7337  139.9582  169.1209 O.3     1  UNL1       -0.4684
     23 C         139.2555  140.2123  169.0973 C.3     1  UNL1        0.2526
     24 O         141.9384  142.7028  169.2471 O.3     1  UNL1       -0.4684
     25 C         142.9756  142.8404  170.3218 C.3     1  UNL1        0.2526
     26 C         139.2929  145.1882  162.8647 C.3     1  UNL1        0.0148
     27 C         138.1035  144.2761  162.8067 C.3     1  UNL1        0.1238
     28 C         138.2428  142.8359  163.2024 C.2     1  UNL1        0.3512
     29 N         138.6551  141.7099  162.3013 N.2     1  UNL1       -0.0350
     30 C         138.6613  140.4469  163.1106 C.2     1  UNL1        0.2318
     31 C         138.9861  139.0270  162.7526 C.2     1  UNL1        0.0507
     32 C         138.9024  137.9526  163.7960 C.2     1  UNL1        0.0114
     33 C         138.4939  138.2981  165.1973 C.2     1  UNL1        0.0440
     34 CL        138.4102  137.2236  166.2407 Cl      1  UNL1       -0.0864
     35 C         138.1690  139.7181  165.5553 C.3     1  UNL1        0.1155
     36 C         138.2527  140.7925  164.5119 C.2     1  UNL1        0.2183
     37 N         137.9941  142.2689  164.5686 N.2     1  UNL1       -0.0389
@<TRIPOS>BOND
     1    12    13    1
     2    13     6    1
     3     6     7   ar
     4     7     8   ar
     5     8     9   ar
     6     1     9    1
     7     1     2    1
     8     2     3    1
     9     3    14    1
    10    14    15    1
    11    15    16    1
    12    16    17   ar
    13    17    18   ar
    14    18    19   ar
    15    19    22    1
    16    22    23    1
    17    19    20   ar
    18    20    24    1
    19    24    25    1
    20    20    21   ar
    21     3     4    1
    22     4     5    1
    23     5    26    1
    24    26    27    1
    25    27    28    1
    26    28    29    2
    27    29    30    1
    28    30    31    2
    29    31    32    1
    30    32    33    2
    31    33    34    1
    32    33    35    1
    33    35    36    1
    34    36    37    2
    35     9    10   ar
    36    10    11   ar
    37    11     6   ar
    38     5     1    1
    39    37    28    1
    40    21    16   ar
    41    36    30    1
