@<TRIPOS>MOLECULE
*****
 33 36 0 0 0
SMALL
GASTEIGER

@<TRIPOS>ATOM
      1 C         142.5792  143.7751  159.4396 C.3     1  UNL1        0.1004
      2 C         143.2629  143.5923  158.1171 C.3     1  UNL1        0.1085
      3 N         144.4332  142.6769  158.3228 N.pl3   1  UNL1       -0.3057
      4 C         144.4729  142.2940  159.7726 C.3     1  UNL1        0.0966
      5 C         143.3271  142.9727  160.4628 C.3     1  UNL1        0.0598
      6 C         145.3951  142.2240  157.2646 C.ar    1  UNL1        0.0479
      7 C         144.9750  141.1903  156.2621 C.ar    1  UNL1        0.0145
      8 C         145.9368  140.7375  155.2039 C.ar    1  UNL1        0.0013
      9 C         147.3187  141.3183  155.1482 C.ar    1  UNL1        0.0001
     10 C         147.7387  142.3520  156.1506 C.ar    1  UNL1        0.0013
     11 C         146.7769  142.8049  157.2088 C.ar    1  UNL1        0.0145
     12 C         142.9886  142.8674  161.9203 C.ar    1  UNL1       -0.0194
     13 C         143.3476  143.9833  162.8562 C.ar    1  UNL1       -0.0042
     14 C         143.0091  143.8781  164.3137 C.ar    1  UNL1       -0.0003
     15 C         142.3115  142.6569  164.8353 C.ar    1  UNL1       -0.0000
     16 C         141.9524  141.5410  163.8994 C.ar    1  UNL1       -0.0003
     17 C         142.2910  141.6463  162.4420 C.ar    1  UNL1       -0.0042
     18 C         141.9730  142.5517  166.2928 C.ar    1  UNL1        0.0000
     19 C         143.0370  142.1881  167.2855 C.ar    1  UNL1        0.0007
     20 C         142.6985  142.0828  168.7431 C.ar    1  UNL1        0.0103
     21 C         141.2958  142.3412  169.2078 C.ar    1  UNL1        0.0684
     22 C         140.2318  142.7049  168.2150 C.ar    1  UNL1        0.0103
     23 C         140.5703  142.8101  166.7575 C.ar    1  UNL1        0.0007
     24 C         140.9573  142.2360  170.6653 C.1     1  UNL1        0.1004
     25 N         140.6187  142.1307  172.1228 N.1     1  UNL1       -0.1908
     26 N         141.3616  144.6132  159.6944 N.3     1  UNL1       -0.1827
     27 H         141.6918  145.5180  160.0299 H       1  UNL1        0.1484
     28 S         140.3189  144.1453  160.6659 S.O2    1  UNL1        0.0390
     29 O         140.5698  145.3544  161.5175 O.2     1  UNL1       -0.1576
     30 O         140.0679  142.9363  159.8144 O.2     1  UNL1       -0.1576
     31 C         138.2834  142.6310  161.2260 C.3     1  UNL1        0.0270
     32 C         139.2762  143.6774  161.6375 C.3     1  UNL1        0.1457
     33 C         139.2264  144.2561  163.0205 C.3     1  UNL1        0.0270
@<TRIPOS>BOND
     1    31    32    1
     2    32    33    1
     3    32    28    1
     4    28    29    2
     5    28    30    2
     6    28    26    1
     7     1    26    1
     8     1     2    1
     9     2     3    1
    10     3     6    1
    11     6     7   ar
    12     7     8   ar
    13     8     9   ar
    14     9    10   ar
    15    10    11   ar
    16     3     4    1
    17     4     5    1
    18     5    12    1
    19    12    13   ar
    20    13    14   ar
    21    14    15   ar
    22    15    18    1
    23    18    19   ar
    24    19    20   ar
    25    20    21   ar
    26    21    24    1
    27    24    25    3
    28    21    22   ar
    29    22    23   ar
    30    15    16   ar
    31    16    17   ar
    32     5     1    1
    33    17    12   ar
    34    11     6   ar
    35    23    18   ar
    36    26    27    1
@<TRIPOS>MOLECULE
*****
 33 36 0 0 0
SMALL
GASTEIGER

@<TRIPOS>ATOM
      1 C         138.3106  140.1583  159.6232 C.3     1  UNL1        0.1004
      2 C         138.0805  140.5626  158.1972 C.3     1  UNL1        0.1085
      3 N         138.2198  142.0536  158.1097 N.pl3   1  UNL1       -0.3057
      4 C         138.5359  142.5708  159.4818 C.3     1  UNL1        0.0966
      5 C         138.5921  141.3995  160.4172 C.3     1  UNL1        0.0598
      6 C         138.0693  142.8819  156.8682 C.ar    1  UNL1        0.0479
      7 C         139.0947  143.9239  156.5329 C.ar    1  UNL1        0.0145
      8 C         138.9442  144.7521  155.2915 C.ar    1  UNL1        0.0013
      9 C         137.7682  144.5383  154.3852 C.ar    1  UNL1        0.0001
     10 C         136.7427  143.4962  154.7205 C.ar    1  UNL1        0.0013
     11 C         136.8932  142.6680  155.9620 C.ar    1  UNL1        0.0145
     12 C         138.8793  141.4590  161.8882 C.ar    1  UNL1       -0.0194
     13 C         137.7512  141.4046  162.8754 C.ar    1  UNL1       -0.0042
     14 C         138.0384  141.4641  164.3465 C.ar    1  UNL1       -0.0003
     15 C         139.4536  141.5778  164.8303 C.ar    1  UNL1       -0.0000
     16 C         140.5818  141.6322  163.8430 C.ar    1  UNL1       -0.0003
     17 C         140.2945  141.5728  162.3721 C.ar    1  UNL1       -0.0042
     18 C         139.7408  141.6373  166.3013 C.ar    1  UNL1        0.0000
     19 C         139.5088  140.4296  167.1602 C.ar    1  UNL1        0.0007
     20 C         139.7960  140.4890  168.6312 C.ar    1  UNL1        0.0103
     21 C         140.3152  141.7562  169.2434 C.ar    1  UNL1        0.0684
     22 C         140.5472  142.9639  168.3846 C.ar    1  UNL1        0.0103
     23 C         140.2600  142.9045  166.9135 C.ar    1  UNL1        0.0007
     24 C         140.6024  141.8157  170.7145 C.1     1  UNL1        0.1004
     25 N         140.8896  141.8751  172.1856 N.1     1  UNL1       -0.1908
     26 N         138.2669  138.7587  160.1609 N.3     1  UNL1       -0.1827
     27 H         137.3256  138.6127  160.5257 H       1  UNL1        0.1484
     28 S         139.2197  138.3402  161.2412 S.O2    1  UNL1        0.0390
     29 O         138.0651  138.1122  162.1712 O.2     1  UNL1       -0.1576
     30 O         140.3742  138.5682  160.3113 O.2     1  UNL1       -0.1576
     31 C         141.6248  137.7212  162.0043 C.3     1  UNL1        0.0270
     32 C         140.1725  137.9217  162.3215 C.3     1  UNL1        0.1457
     33 C         139.6729  137.7037  163.7190 C.3     1  UNL1        0.0270
@<TRIPOS>BOND
     1    31    32    1
     2    32    33    1
     3    32    28    1
     4    28    29    2
     5    28    30    2
     6    28    26    1
     7     1    26    1
     8     1     2    1
     9     2     3    1
    10     3     6    1
    11     6     7   ar
    12     7     8   ar
    13     8     9   ar
    14     9    10   ar
    15    10    11   ar
    16     3     4    1
    17     4     5    1
    18     5    12    1
    19    12    13   ar
    20    13    14   ar
    21    14    15   ar
    22    15    18    1
    23    18    19   ar
    24    19    20   ar
    25    20    21   ar
    26    21    24    1
    27    24    25    3
    28    21    22   ar
    29    22    23   ar
    30    15    16   ar
    31    16    17   ar
    32     5     1    1
    33    17    12   ar
    34    11     6   ar
    35    23    18   ar
    36    26    27    1
@<TRIPOS>MOLECULE
*****
 33 36 0 0 0
SMALL
GASTEIGER

@<TRIPOS>ATOM
      1 C         139.1132  140.6332  159.3334 C.3     1  UNL1        0.1004
      2 C         139.2953  139.9579  158.0066 C.3     1  UNL1        0.1085
      3 N         140.1063  138.7153  158.2263 N.pl3   1  UNL1       -0.3057
      4 C         140.4253  138.6226  159.6891 C.3     1  UNL1        0.0966
      5 C         139.8115  139.8080  160.3733 C.3     1  UNL1        0.0598
      6 C         140.5248  137.7370  157.1690 C.ar    1  UNL1        0.0479
      7 C         139.5696  137.3602  156.0755 C.ar    1  UNL1        0.0145
      8 C         139.9881  136.3820  155.0182 C.ar    1  UNL1        0.0013
      9 C         141.3617  135.7806  155.0544 C.ar    1  UNL1        0.0001
     10 C         142.3169  136.1574  156.1478 C.ar    1  UNL1        0.0013
     11 C         141.8984  137.1356  157.2051 C.ar    1  UNL1        0.0145
     12 C         139.8835  140.1144  161.8400 C.ar    1  UNL1       -0.0194
     13 C         141.1442  140.6755  162.4280 C.ar    1  UNL1       -0.0042
     14 C         141.2161  140.9818  163.8946 C.ar    1  UNL1       -0.0003
     15 C         140.0274  140.7271  164.7731 C.ar    1  UNL1       -0.0000
     16 C         138.7666  140.1660  164.1851 C.ar    1  UNL1       -0.0003
     17 C         138.6947  139.8596  162.7186 C.ar    1  UNL1       -0.0042
     18 C         140.0993  141.0335  166.2398 C.ar    1  UNL1        0.0000
     19 C         139.6434  140.0148  167.2420 C.ar    1  UNL1        0.0007
     20 C         139.7153  140.3212  168.7086 C.ar    1  UNL1        0.0103
     21 C         140.2433  141.6463  169.1730 C.ar    1  UNL1        0.0684
     22 C         140.6992  142.6649  168.1708 C.ar    1  UNL1        0.0103
     23 C         140.6273  142.3585  166.7041 C.ar    1  UNL1        0.0007
     24 C         140.3152  141.9527  170.6396 C.1     1  UNL1        0.1004
     25 N         140.3872  142.2590  172.1063 N.1     1  UNL1       -0.1908
     26 N         138.3641  141.9097  159.5776 N.3     1  UNL1       -0.1827
     27 H         138.2215  142.3462  158.6669 H       1  UNL1        0.1484
     28 S         138.9463  142.9610  160.4753 S.O2    1  UNL1        0.0390
     29 O         137.7103  142.9205  161.3243 O.2     1  UNL1       -0.1576
     30 O         140.1823  143.0014  159.6264 O.2     1  UNL1       -0.1576
     31 C         139.2343  143.9895  162.8437 C.3     1  UNL1        0.0270
     32 C         139.5286  144.0123  161.3730 C.3     1  UNL1        0.1457
     33 C         140.4050  145.0862  160.7999 C.3     1  UNL1        0.0270
@<TRIPOS>BOND
     1    31    32    1
     2    32    33    1
     3    32    28    1
     4    28    29    2
     5    28    30    2
     6    28    26    1
     7     1    26    1
     8     1     2    1
     9     2     3    1
    10     3     6    1
    11     6     7   ar
    12     7     8   ar
    13     8     9   ar
    14     9    10   ar
    15    10    11   ar
    16     3     4    1
    17     4     5    1
    18     5    12    1
    19    12    13   ar
    20    13    14   ar
    21    14    15   ar
    22    15    18    1
    23    18    19   ar
    24    19    20   ar
    25    20    21   ar
    26    21    24    1
    27    24    25    3
    28    21    22   ar
    29    22    23   ar
    30    15    16   ar
    31    16    17   ar
    32     5     1    1
    33    17    12   ar
    34    11     6   ar
    35    23    18   ar
    36    26    27    1
@<TRIPOS>MOLECULE
*****
 33 36 0 0 0
SMALL
GASTEIGER

@<TRIPOS>ATOM
      1 C         139.8818  142.5743  158.9591 C.3     1  UNL1        0.1004
      2 C         139.3677  142.3002  157.5769 C.3     1  UNL1        0.1085
      3 N         138.2739  141.2792  157.6831 N.pl3   1  UNL1       -0.3057
      4 C         138.1120  140.9223  159.1310 C.3     1  UNL1        0.0966
      5 C         139.1058  141.7227  159.9196 C.3     1  UNL1        0.0598
      6 C         137.4811  140.7143  156.5418 C.ar    1  UNL1        0.0479
      7 C         136.0255  141.0482  156.4019 C.ar    1  UNL1        0.0145
      8 C         135.2328  140.4833  155.2607 C.ar    1  UNL1        0.0013
      9 C         135.8958  139.5846  154.2593 C.ar    1  UNL1        0.0001
     10 C         137.3514  139.2507  154.3992 C.ar    1  UNL1        0.0013
     11 C         138.1441  139.8156  155.5405 C.ar    1  UNL1        0.0145
     12 C         139.2910  141.6791  161.4075 C.ar    1  UNL1       -0.0194
     13 C         138.3676  142.4529  162.3012 C.ar    1  UNL1       -0.0042
     14 C         138.5528  142.4093  163.7891 C.ar    1  UNL1       -0.0003
     15 C         139.6614  141.5921  164.3832 C.ar    1  UNL1       -0.0000
     16 C         140.5849  140.8183  163.4895 C.ar    1  UNL1       -0.0003
     17 C         140.3996  140.8619  162.0017 C.ar    1  UNL1       -0.0042
     18 C         139.8466  141.5485  165.8711 C.ar    1  UNL1        0.0000
     19 C         140.3589  142.7560  166.5988 C.ar    1  UNL1        0.0007
     20 C         140.5441  142.7125  168.0867 C.ar    1  UNL1        0.0103
     21 C         140.2170  141.4614  168.8469 C.ar    1  UNL1        0.0684
     22 C         139.7047  140.2539  168.1192 C.ar    1  UNL1        0.0103
     23 C         139.5195  140.2974  166.6313 C.ar    1  UNL1        0.0007
     24 C         140.4022  141.4178  170.3348 C.1     1  UNL1        0.1004
     25 N         140.5875  141.3743  171.8227 N.1     1  UNL1       -0.1908
     26 N         140.9793  143.5318  159.3178 N.3     1  UNL1       -0.1827
     27 H         141.8271  142.9771  159.4358 H       1  UNL1        0.1484
     28 S         140.8528  144.3944  160.5384 S.O2    1  UNL1        0.0390
     29 O         139.6669  145.0822  159.9295 O.2     1  UNL1       -0.1576
     30 O         142.0386  143.7068  161.1472 O.2     1  UNL1       -0.1576
     31 C         139.6958  146.3460  161.8043 C.3     1  UNL1        0.0270
     32 C         140.7263  145.2571  161.7590 C.3     1  UNL1        0.1457
     33 C         141.6305  145.0306  162.9343 C.3     1  UNL1        0.0270
@<TRIPOS>BOND
     1    31    32    1
     2    32    33    1
     3    32    28    1
     4    28    29    2
     5    28    30    2
     6    28    26    1
     7     1    26    1
     8     1     2    1
     9     2     3    1
    10     3     6    1
    11     6     7   ar
    12     7     8   ar
    13     8     9   ar
    14     9    10   ar
    15    10    11   ar
    16     3     4    1
    17     4     5    1
    18     5    12    1
    19    12    13   ar
    20    13    14   ar
    21    14    15   ar
    22    15    18    1
    23    18    19   ar
    24    19    20   ar
    25    20    21   ar
    26    21    24    1
    27    24    25    3
    28    21    22   ar
    29    22    23   ar
    30    15    16   ar
    31    16    17   ar
    32     5     1    1
    33    17    12   ar
    34    11     6   ar
    35    23    18   ar
    36    26    27    1
@<TRIPOS>MOLECULE
*****
 33 36 0 0 0
SMALL
GASTEIGER

@<TRIPOS>ATOM
      1 C         142.6926  143.6117  159.1294 C.3     1  UNL1        0.1004
      2 C         143.4069  143.4482  157.8205 C.3     1  UNL1        0.1085
      3 N         144.6577  142.6588  158.0705 N.pl3   1  UNL1       -0.3057
      4 C         144.7165  142.3345  159.5338 C.3     1  UNL1        0.0966
      5 C         143.5020  142.9233  160.1883 C.3     1  UNL1        0.0598
      6 C         145.6717  142.2633  157.0383 C.ar    1  UNL1        0.0479
      7 C         145.2717  141.3798  155.8940 C.ar    1  UNL1        0.0145
      8 C         146.2857  140.9843  154.8619 C.ar    1  UNL1        0.0013
      9 C         147.6997  141.4723  154.9740 C.ar    1  UNL1        0.0001
     10 C         148.0997  142.3558  156.1183 C.ar    1  UNL1        0.0013
     11 C         147.0857  142.7513  157.1504 C.ar    1  UNL1        0.0145
     12 C         143.1574  142.8388  161.6457 C.ar    1  UNL1       -0.0194
     13 C         141.9764  142.0285  162.0913 C.ar    1  UNL1       -0.0042
     14 C         141.6318  141.9439  163.5488 C.ar    1  UNL1       -0.0003
     15 C         142.4682  142.6696  164.5605 C.ar    1  UNL1       -0.0000
     16 C         143.6493  143.4800  164.1149 C.ar    1  UNL1       -0.0003
     17 C         143.9938  143.5645  162.6575 C.ar    1  UNL1       -0.0042
     18 C         142.1236  142.5851  166.0179 C.ar    1  UNL1        0.0000
     19 C         140.7002  142.7471  166.4627 C.ar    1  UNL1        0.0007
     20 C         140.3556  142.6625  167.9201 C.ar    1  UNL1        0.0103
     21 C         141.4344  142.4159  168.9328 C.ar    1  UNL1        0.0684
     22 C         142.8578  142.2540  168.4881 C.ar    1  UNL1        0.0103
     23 C         143.2024  142.3385  167.0306 C.ar    1  UNL1        0.0007
     24 C         141.0898  142.3314  170.3903 C.1     1  UNL1        0.1004
     25 N         140.7452  142.2468  171.8477 N.1     1  UNL1       -0.1908
     26 N         141.3966  144.3362  159.3420 N.3     1  UNL1       -0.1827
     27 H         140.7928  143.7096  159.8741 H       1  UNL1        0.1484
     28 S         140.5989  144.8082  158.1626 S.O2    1  UNL1        0.0390
     29 O         139.7343  143.5861  158.2584 O.2     1  UNL1       -0.1576
     30 O         141.4634  146.0301  158.0669 O.2     1  UNL1       -0.1576
     31 C         139.6235  146.7491  156.7373 C.3     1  UNL1        0.0270
     32 C         139.8012  145.2801  156.9832 C.3     1  UNL1        0.1457
     33 C         139.1812  144.2830  156.0497 C.3     1  UNL1        0.0270
@<TRIPOS>BOND
     1    31    32    1
     2    32    33    1
     3    32    28    1
     4    28    29    2
     5    28    30    2
     6    28    26    1
     7     1    26    1
     8     1     2    1
     9     2     3    1
    10     3     6    1
    11     6     7   ar
    12     7     8   ar
    13     8     9   ar
    14     9    10   ar
    15    10    11   ar
    16     3     4    1
    17     4     5    1
    18     5    12    1
    19    12    13   ar
    20    13    14   ar
    21    14    15   ar
    22    15    18    1
    23    18    19   ar
    24    19    20   ar
    25    20    21   ar
    26    21    24    1
    27    24    25    3
    28    21    22   ar
    29    22    23   ar
    30    15    16   ar
    31    16    17   ar
    32     5     1    1
    33    17    12   ar
    34    11     6   ar
    35    23    18   ar
    36    26    27    1
@<TRIPOS>MOLECULE
*****
 33 36 0 0 0
SMALL
GASTEIGER

@<TRIPOS>ATOM
      1 C         139.1921  141.2915  165.0545 C.3     1  UNL1        0.1004
      2 C         139.5713  140.8831  166.4471 C.3     1  UNL1        0.1085
      3 N         140.9728  141.3528  166.7025 N.pl3   1  UNL1       -0.3057
      4 C         141.4598  142.0515  165.4677 C.3     1  UNL1        0.0966
      5 C         140.3593  142.0136  164.4492 C.3     1  UNL1        0.0598
      6 C         141.7508  141.1579  167.9702 C.ar    1  UNL1        0.0479
      7 C         141.5857  139.8967  168.7651 C.ar    1  UNL1        0.0145
      8 C         142.3636  139.7019  170.0327 C.ar    1  UNL1        0.0013
      9 C         143.3066  140.7684  170.5053 C.ar    1  UNL1        0.0001
     10 C         143.4717  142.0296  169.7104 C.ar    1  UNL1        0.0013
     11 C         142.6938  142.2244  168.4428 C.ar    1  UNL1        0.0145
     12 C         140.4159  142.5957  163.0679 C.ar    1  UNL1       -0.0194
     13 C         139.7875  143.9289  162.7895 C.ar    1  UNL1       -0.0042
     14 C         139.8442  144.5110  161.4081 C.ar    1  UNL1       -0.0003
     15 C         140.5292  143.7598  160.3053 C.ar    1  UNL1       -0.0000
     16 C         141.1577  142.4265  160.5837 C.ar    1  UNL1       -0.0003
     17 C         141.1010  141.8445  161.9650 C.ar    1  UNL1       -0.0042
     18 C         140.5859  144.3419  158.9240 C.ar    1  UNL1        0.0000
     19 C         141.5877  145.4105  158.6010 C.ar    1  UNL1        0.0007
     20 C         141.6443  145.9926  157.2196 C.ar    1  UNL1        0.0103
     21 C         140.6991  145.5059  156.1614 C.ar    1  UNL1        0.0684
     22 C         139.6973  144.4373  156.4844 C.ar    1  UNL1        0.0103
     23 C         139.6406  143.8552  157.8657 C.ar    1  UNL1        0.0007
     24 C         140.7558  146.0880  154.7800 C.1     1  UNL1        0.1004
     25 N         140.8124  146.6701  153.3987 N.1     1  UNL1       -0.1908
     26 N         137.8767  141.0246  164.3847 N.3     1  UNL1       -0.1827
     27 H         137.3291  140.4535  165.0284 H       1  UNL1        0.1484
     28 S         137.8393  140.3339  163.0538 S.O2    1  UNL1        0.0390
     29 O         138.5016  139.1317  163.6590 O.2     1  UNL1       -0.1576
     30 O         137.1770  141.5359  162.4486 O.2     1  UNL1       -0.1576
     31 C         137.8227  140.4497  160.4583 C.3     1  UNL1        0.0270
     32 C         137.8018  139.6431  161.7228 C.3     1  UNL1        0.1457
     33 C         137.7435  138.1457  161.6564 C.3     1  UNL1        0.0270
@<TRIPOS>BOND
     1    31    32    1
     2    32    33    1
     3    32    28    1
     4    28    29    2
     5    28    30    2
     6    28    26    1
     7     1    26    1
     8     1     2    1
     9     2     3    1
    10     3     6    1
    11     6     7   ar
    12     7     8   ar
    13     8     9   ar
    14     9    10   ar
    15    10    11   ar
    16     3     4    1
    17     4     5    1
    18     5    12    1
    19    12    13   ar
    20    13    14   ar
    21    14    15   ar
    22    15    18    1
    23    18    19   ar
    24    19    20   ar
    25    20    21   ar
    26    21    24    1
    27    24    25    3
    28    21    22   ar
    29    22    23   ar
    30    15    16   ar
    31    16    17   ar
    32     5     1    1
    33    17    12   ar
    34    11     6   ar
    35    23    18   ar
    36    26    27    1
@<TRIPOS>MOLECULE
*****
 33 36 0 0 0
SMALL
GASTEIGER

@<TRIPOS>ATOM
      1 C         143.4064  143.1924  159.3869 C.3     1  UNL1        0.1004
      2 C         143.1754  143.7482  158.0129 C.3     1  UNL1        0.1085
      3 N         141.9230  144.5730  158.0511 N.pl3   1  UNL1       -0.3057
      4 C         141.3801  144.5269  159.4486 C.3     1  UNL1        0.0966
      5 C         142.2968  143.6737  160.2742 C.3     1  UNL1        0.0598
      6 C         141.3196  145.3138  156.8947 C.ar    1  UNL1        0.0479
      7 C         141.9001  145.1597  155.5202 C.ar    1  UNL1        0.0145
      8 C         141.2967  145.9005  154.3639 C.ar    1  UNL1        0.0013
      9 C         140.1128  146.7954  154.5821 C.ar    1  UNL1        0.0001
     10 C         139.5323  146.9494  155.9566 C.ar    1  UNL1        0.0013
     11 C         140.1357  146.2087  157.1129 C.ar    1  UNL1        0.0145
     12 C         142.1328  143.3573  161.7313 C.ar    1  UNL1       -0.0194
     13 C         141.1076  142.3542  162.1701 C.ar    1  UNL1       -0.0042
     14 C         140.9436  142.0378  163.6272 C.ar    1  UNL1       -0.0003
     15 C         141.8049  142.7245  164.6453 C.ar    1  UNL1       -0.0000
     16 C         142.8302  143.7276  164.2064 C.ar    1  UNL1       -0.0003
     17 C         142.9941  144.0439  162.7494 C.ar    1  UNL1       -0.0042
     18 C         141.6409  142.4080  166.1024 C.ar    1  UNL1        0.0000
     19 C         140.2756  142.1391  166.6624 C.ar    1  UNL1        0.0007
     20 C         140.1116  141.8226  168.1195 C.ar    1  UNL1        0.0103
     21 C         141.3130  141.7752  169.0165 C.ar    1  UNL1        0.0684
     22 C         142.6783  142.0442  168.4565 C.ar    1  UNL1        0.0103
     23 C         142.8423  142.3606  166.9994 C.ar    1  UNL1        0.0007
     24 C         141.1490  141.4588  170.4736 C.1     1  UNL1        0.1004
     25 N         140.9850  141.1424  171.9306 N.1     1  UNL1       -0.1908
     26 N         144.5467  142.3102  159.8008 N.3     1  UNL1       -0.1827
     27 H         144.9932  141.9843  158.9435 H       1  UNL1        0.1484
     28 S         144.2883  141.0960  160.6429 S.O2    1  UNL1        0.0390
     29 O         145.1996  141.6380  161.7040 O.2     1  UNL1       -0.1576
     30 O         143.3770  140.5541  159.5820 O.2     1  UNL1       -0.1576
     31 C         143.7861  138.5540  160.8316 C.3     1  UNL1        0.0270
     32 C         144.0299  139.8819  161.4850 C.3     1  UNL1        0.1457
     33 C         144.0153  139.9959  162.9807 C.3     1  UNL1        0.0270
@<TRIPOS>BOND
     1    31    32    1
     2    32    33    1
     3    32    28    1
     4    28    29    2
     5    28    30    2
     6    28    26    1
     7     1    26    1
     8     1     2    1
     9     2     3    1
    10     3     6    1
    11     6     7   ar
    12     7     8   ar
    13     8     9   ar
    14     9    10   ar
    15    10    11   ar
    16     3     4    1
    17     4     5    1
    18     5    12    1
    19    12    13   ar
    20    13    14   ar
    21    14    15   ar
    22    15    18    1
    23    18    19   ar
    24    19    20   ar
    25    20    21   ar
    26    21    24    1
    27    24    25    3
    28    21    22   ar
    29    22    23   ar
    30    15    16   ar
    31    16    17   ar
    32     5     1    1
    33    17    12   ar
    34    11     6   ar
    35    23    18   ar
    36    26    27    1
@<TRIPOS>MOLECULE
*****
 33 36 0 0 0
SMALL
GASTEIGER

@<TRIPOS>ATOM
      1 C         142.3899  139.1297  159.5318 C.3     1  UNL1        0.1004
      2 C         143.0024  139.2350  158.1666 C.3     1  UNL1        0.1085
      3 N         144.0084  140.3474  158.1945 N.pl3   1  UNL1       -0.3057
      4 C         144.0176  140.9295  159.5769 C.3     1  UNL1        0.0966
      5 C         143.0173  140.1770  160.4034 C.3     1  UNL1        0.0598
      6 C         144.8563  140.7984  157.0422 C.ar    1  UNL1        0.0479
      7 C         145.7271  142.0117  157.1815 C.ar    1  UNL1        0.0145
      8 C         146.5750  142.4626  156.0293 C.ar    1  UNL1        0.0013
      9 C         146.5521  141.7002  154.7377 C.ar    1  UNL1        0.0001
     10 C         145.6813  140.4869  154.5984 C.ar    1  UNL1        0.0013
     11 C         144.8334  140.0359  155.7506 C.ar    1  UNL1        0.0145
     12 C         142.7000  140.4277  161.8479 C.ar    1  UNL1       -0.0194
     13 C         141.7844  141.5525  162.2304 C.ar    1  UNL1       -0.0042
     14 C         141.4671  141.8032  163.6749 C.ar    1  UNL1       -0.0003
     15 C         142.0656  140.9291  164.7367 C.ar    1  UNL1       -0.0000
     16 C         142.9813  139.8043  164.3542 C.ar    1  UNL1       -0.0003
     17 C         143.2985  139.5536  162.9098 C.ar    1  UNL1       -0.0042
     18 C         141.7484  141.1798  166.1812 C.ar    1  UNL1        0.0000
     19 C         142.6987  141.9695  167.0317 C.ar    1  UNL1        0.0007
     20 C         142.3815  142.2202  168.4762 C.ar    1  UNL1        0.0103
     21 C         141.1138  141.6812  169.0702 C.ar    1  UNL1        0.0684
     22 C         140.1635  140.8916  168.2197 C.ar    1  UNL1        0.0103
     23 C         140.4807  140.6409  166.7752 C.ar    1  UNL1        0.0007
     24 C         140.7966  141.9319  170.5147 C.1     1  UNL1        0.1004
     25 N         140.4794  142.1826  171.9592 N.1     1  UNL1       -0.1908
     26 N         141.3351  138.1493  159.9516 N.3     1  UNL1       -0.1827
     27 H         140.9644  137.7321  159.0979 H       1  UNL1        0.1484
     28 S         140.1560  138.6140  160.7540 S.O2    1  UNL1        0.0390
     29 O         140.5044  137.6331  161.8340 O.2     1  UNL1       -0.1576
     30 O         139.8076  139.5948  159.6740 O.2     1  UNL1       -0.1576
     31 C         139.0131  139.0056  163.0541 C.3     1  UNL1        0.0270
     32 C         138.9768  139.0786  161.5563 C.3     1  UNL1        0.1457
     33 C         137.7614  139.6163  160.8608 C.3     1  UNL1        0.0270
@<TRIPOS>BOND
     1    31    32    1
     2    32    33    1
     3    32    28    1
     4    28    29    2
     5    28    30    2
     6    28    26    1
     7     1    26    1
     8     1     2    1
     9     2     3    1
    10     3     6    1
    11     6     7   ar
    12     7     8   ar
    13     8     9   ar
    14     9    10   ar
    15    10    11   ar
    16     3     4    1
    17     4     5    1
    18     5    12    1
    19    12    13   ar
    20    13    14   ar
    21    14    15   ar
    22    15    18    1
    23    18    19   ar
    24    19    20   ar
    25    20    21   ar
    26    21    24    1
    27    24    25    3
    28    21    22   ar
    29    22    23   ar
    30    15    16   ar
    31    16    17   ar
    32     5     1    1
    33    17    12   ar
    34    11     6   ar
    35    23    18   ar
    36    26    27    1
@<TRIPOS>MOLECULE
*****
 33 36 0 0 0
SMALL
GASTEIGER

@<TRIPOS>ATOM
      1 C         141.1600  139.2898  164.8567 C.3     1  UNL1        0.1004
      2 C         140.9721  139.7290  166.2786 C.3     1  UNL1        0.1085
      3 N         141.7003  141.0274  166.4628 N.pl3   1  UNL1       -0.3057
      4 C         142.3382  141.3907  165.1547 C.3     1  UNL1        0.0966
      5 C         142.0043  140.3168  164.1621 C.3     1  UNL1        0.0598
      6 C         141.7771  141.8228  167.7322 C.ar    1  UNL1        0.0479
      7 C         140.5998  142.6379  168.1789 C.ar    1  UNL1        0.0145
      8 C         140.6766  143.4333  169.4483 C.ar    1  UNL1        0.0013
      9 C         141.9307  143.4136  170.2710 C.ar    1  UNL1        0.0001
     10 C         143.1080  142.5985  169.8243 C.ar    1  UNL1        0.0013
     11 C         143.0312  141.8031  168.5549 C.ar    1  UNL1        0.0145
     12 C         142.4385  140.2769  162.7268 C.ar    1  UNL1       -0.0194
     13 C         143.5161  139.3270  162.2954 C.ar    1  UNL1       -0.0042
     14 C         143.9503  139.2871  160.8601 C.ar    1  UNL1       -0.0003
     15 C         143.3068  140.1972  159.8564 C.ar    1  UNL1       -0.0000
     16 C         142.2291  141.1472  160.2878 C.ar    1  UNL1       -0.0003
     17 C         141.7950  141.1870  161.7230 C.ar    1  UNL1       -0.0042
     18 C         143.7410  140.1573  158.4211 C.ar    1  UNL1        0.0000
     19 C         144.7627  141.1341  157.9192 C.ar    1  UNL1        0.0007
     20 C         145.1968  141.0942  156.4840 C.ar    1  UNL1        0.0103
     21 C         144.6092  140.0775  155.5506 C.ar    1  UNL1        0.0684
     22 C         143.5875  139.1007  156.0525 C.ar    1  UNL1        0.0103
     23 C         143.1533  139.1406  157.4878 C.ar    1  UNL1        0.0007
     24 C         145.0434  140.0376  154.1154 C.1     1  UNL1        0.1004
     25 N         145.4776  139.9977  152.6801 N.1     1  UNL1       -0.1908
     26 N         140.6016  138.0427  164.2380 N.3     1  UNL1       -0.1827
     27 H         141.3893  137.4143  164.0797 H       1  UNL1        0.1484
     28 S         139.8438  138.1209  162.9458 S.O2    1  UNL1        0.0390
     29 O         138.8565  139.0544  163.5814 O.2     1  UNL1       -0.1576
     30 O         140.8310  137.1875  162.3103 O.2     1  UNL1       -0.1576
     31 C         139.8279  138.2982  160.3538 C.3     1  UNL1        0.0270
     32 C         139.0859  138.1992  161.6537 C.3     1  UNL1        0.1457
     33 C         137.5861  138.1783  161.6615 C.3     1  UNL1        0.0270
@<TRIPOS>BOND
     1    31    32    1
     2    32    33    1
     3    32    28    1
     4    28    29    2
     5    28    30    2
     6    28    26    1
     7     1    26    1
     8     1     2    1
     9     2     3    1
    10     3     6    1
    11     6     7   ar
    12     7     8   ar
    13     8     9   ar
    14     9    10   ar
    15    10    11   ar
    16     3     4    1
    17     4     5    1
    18     5    12    1
    19    12    13   ar
    20    13    14   ar
    21    14    15   ar
    22    15    18    1
    23    18    19   ar
    24    19    20   ar
    25    20    21   ar
    26    21    24    1
    27    24    25    3
    28    21    22   ar
    29    22    23   ar
    30    15    16   ar
    31    16    17   ar
    32     5     1    1
    33    17    12   ar
    34    11     6   ar
    35    23    18   ar
    36    26    27    1
