@<TRIPOS>MOLECULE
*****
 35 38 0 0 0
SMALL
GASTEIGER

@<TRIPOS>ATOM
      1 C         141.4965  143.2272  161.6149 C.ar    1  UNL1        0.0537
      2 C         141.8341  142.2032  160.5721 C.ar    1  UNL1        0.0060
      3 C         142.2944  140.8364  160.9845 C.ar    1  UNL1        0.0173
      4 C         142.4169  140.4936  162.4396 C.ar    1  UNL1        0.0594
      5 C         142.0793  141.5176  163.4824 C.ar    1  UNL1        0.0130
      6 C         141.6191  142.8844  163.0700 C.ar    1  UNL1        0.0057
      7 C         142.2949  140.8953  164.8301 C.ar    1  UNL1       -0.0091
      8 C         142.7659  139.4867  164.6203 C.ar    1  UNL1        0.0331
      9 N         142.8413  139.2385  163.1429 N.ar    1  UNL1       -0.3289
     10 C         143.2664  137.9596  162.4843 C.3     1  UNL1        0.1301
     11 C         143.0652  138.6121  165.8015 C.3     1  UNL1        0.0435
     12 C         142.8936  139.1462  167.1927 C.3     1  UNL1        0.0066
     13 C         142.4226  140.5548  167.4026 C.3     1  UNL1        0.0049
     14 C         142.1233  141.4293  166.2212 C.3     1  UNL1        0.0275
     15 C         142.2510  141.0888  168.7937 C.3     1  UNL1        0.0053
     16 C         142.9585  142.3451  169.2074 C.3     1  UNL1        0.0322
     17 C         142.7869  142.8791  170.5986 C.3     1  UNL1        0.1422
     18 O         141.9078  142.1568  171.5761 O.3     1  UNL1       -0.3538
     19 C         141.2003  140.9005  171.1625 C.3     1  UNL1        0.1422
     20 C         141.3719  140.3664  169.7713 C.3     1  UNL1        0.0322
     21 C         139.5112  146.6634  161.5790 C.3     1  UNL1        0.1152
     22 N         139.9714  145.2966  161.9914 N.am    1  UNL1       -0.2743
     23 C         141.0363  144.5940  161.2025 C.2     1  UNL1        0.2491
     24 O         141.6409  145.2582  160.0012 O.2     1  UNL1       -0.2699
     25 C         139.3667  144.6323  163.1928 C.3     1  UNL1        0.0943
     26 C         137.9972  144.0267  163.1051 C.3     1  UNL1        0.0311
     27 C         137.7655  142.8170  162.2488 C.3     1  UNL1        0.0868
     28 C         138.1987  141.4638  162.7294 C.2     1  UNL1        0.2226
     29 O         138.9378  140.5412  161.8062 O.2     1  UNL1       -0.2751
     30 N         137.8927  141.0332  164.1333 N.am    1  UNL1       -0.3020
     31 H         137.4075  141.6388  164.7392 H       1  UNL1        0.1495
     32 C         138.3258  139.6799  164.6140 C.3     1  UNL1        0.1213
     33 C         138.4607  139.4139  166.0840 C.3     1  UNL1        0.1583
     34 O         137.3771  138.6788  166.8157 O.3     1  UNL1       -0.3802
     35 H         136.5692  139.2156  166.8213 H       1  UNL1        0.2105
@<TRIPOS>BOND
     1    21    22    1
     2    22    25    1
     3    25    26    1
     4    26    27    1
     5    27    28    1
     6    28    29    2
     7    28    30   am
     8    30    32    1
     9    32    33    1
    10    33    34    1
    11    22    23   am
    12    23    24    2
    13    23     1    1
    14     1     2   ar
    15     2     3   ar
    16     3     4   ar
    17     4     5   ar
    18     5     6   ar
    19     5     7   ar
    20     7     8   ar
    21     8     9   ar
    22     9    10    1
    23     8    11    1
    24    11    12    1
    25    12    13    1
    26    13    15    1
    27    15    16    1
    28    16    17    1
    29    17    18    1
    30    18    19    1
    31    19    20    1
    32    13    14    1
    33     6     1   ar
    34    14     7    1
    35     9     4   ar
    36    20    15    1
    37    30    31    1
    38    34    35    1
@<TRIPOS>MOLECULE
*****
 35 38 0 0 0
SMALL
GASTEIGER

@<TRIPOS>ATOM
      1 C         141.5476  141.6860  160.6431 C.ar    1  UNL1        0.0537
      2 C         140.8548  140.5282  159.9878 C.ar    1  UNL1        0.0060
      3 C         140.1342  139.5137  160.8253 C.ar    1  UNL1        0.0173
      4 C         140.1064  139.6570  162.3182 C.ar    1  UNL1        0.0594
      5 C         140.7992  140.8148  162.9735 C.ar    1  UNL1        0.0130
      6 C         141.5198  141.8293  162.1359 C.ar    1  UNL1        0.0057
      7 C         140.6024  140.6943  164.4557 C.ar    1  UNL1       -0.0091
      8 C         139.7879  139.4620  164.7164 C.ar    1  UNL1        0.0331
      9 N         139.4814  138.8209  163.3953 N.ar    1  UNL1       -0.3289
     10 C         138.6890  137.5643  163.1879 C.3     1  UNL1        0.1301
     11 C         139.4306  139.0828  166.1229 C.3     1  UNL1        0.0435
     12 C         139.8877  139.9360  167.2688 C.3     1  UNL1        0.0066
     13 C         140.7022  141.1683  167.0081 C.3     1  UNL1        0.0049
     14 C         141.0595  141.5474  165.6015 C.3     1  UNL1        0.0275
     15 C         141.1594  142.0215  168.1540 C.3     1  UNL1        0.0053
     16 C         142.5284  141.8262  168.7350 C.3     1  UNL1        0.0322
     17 C         142.9856  142.6794  169.8809 C.3     1  UNL1        0.1422
     18 O         142.0736  143.7279  170.4459 O.3     1  UNL1       -0.3538
     19 C         140.7046  143.9232  169.8649 C.3     1  UNL1        0.1422
     20 C         140.2474  143.0700  168.7190 C.3     1  UNL1        0.0322
     21 C         142.2410  144.8822  158.3951 C.3     1  UNL1        0.1152
     22 N         141.5204  143.8677  159.2326 N.am    1  UNL1       -0.2743
     23 C         142.2683  142.7005  159.8055 C.2     1  UNL1        0.2491
     24 O         143.7368  142.5478  159.5408 O.2     1  UNL1       -0.2699
     25 C         140.0518  144.0205  159.4974 C.3     1  UNL1        0.0943
     26 C         139.5759  144.4729  160.8460 C.3     1  UNL1        0.0311
     27 C         140.2794  145.5936  161.5525 C.3     1  UNL1        0.0868
     28 C         141.2988  145.2906  162.6104 C.2     1  UNL1        0.2226
     29 O         140.8650  145.0742  164.0299 O.2     1  UNL1       -0.2751
     30 N         142.7519  145.2039  162.2487 N.am    1  UNL1       -0.3020
     31 H         143.0366  145.3459  161.3170 H       1  UNL1        0.1495
     32 C         143.7714  144.9009  163.3065 C.3     1  UNL1        0.1213
     33 C         144.4930  143.5860  163.2980 C.3     1  UNL1        0.1583
     34 O         145.1018  143.0729  162.0267 O.3     1  UNL1       -0.3802
     35 H         144.3988  142.8765  161.3879 H       1  UNL1        0.2105
@<TRIPOS>BOND
     1    21    22    1
     2    22    25    1
     3    25    26    1
     4    26    27    1
     5    27    28    1
     6    28    29    2
     7    28    30   am
     8    30    32    1
     9    32    33    1
    10    33    34    1
    11    22    23   am
    12    23    24    2
    13    23     1    1
    14     1     2   ar
    15     2     3   ar
    16     3     4   ar
    17     4     5   ar
    18     5     6   ar
    19     5     7   ar
    20     7     8   ar
    21     8     9   ar
    22     9    10    1
    23     8    11    1
    24    11    12    1
    25    12    13    1
    26    13    15    1
    27    15    16    1
    28    16    17    1
    29    17    18    1
    30    18    19    1
    31    19    20    1
    32    13    14    1
    33     6     1   ar
    34    14     7    1
    35     9     4   ar
    36    20    15    1
    37    30    31    1
    38    34    35    1
@<TRIPOS>MOLECULE
*****
 35 38 0 0 0
SMALL
GASTEIGER

@<TRIPOS>ATOM
      1 C         139.9803  143.2459  160.7525 C.ar    1  UNL1        0.0537
      2 C         139.4204  142.0827  159.9887 C.ar    1  UNL1        0.0060
      3 C         139.1313  140.7912  160.6945 C.ar    1  UNL1        0.0173
      4 C         139.4021  140.6627  162.1643 C.ar    1  UNL1        0.0594
      5 C         139.9619  141.8259  162.9281 C.ar    1  UNL1        0.0130
      6 C         140.2510  143.1175  162.2223 C.ar    1  UNL1        0.0057
      7 C         140.1249  141.4057  164.3589 C.ar    1  UNL1       -0.0091
      8 C         139.6657  139.9828  164.4792 C.ar    1  UNL1        0.0331
      9 N         139.2190  139.5236  163.1228 N.ar    1  UNL1       -0.3289
     10 C         138.6833  138.1640  162.7844 C.3     1  UNL1        0.1301
     11 C         139.7137  139.2890  165.8081 C.3     1  UNL1        0.0435
     12 C         140.2209  140.0182  167.0169 C.3     1  UNL1        0.0066
     13 C         140.6800  141.4411  166.8966 C.3     1  UNL1        0.0049
     14 C         140.6320  142.1348  165.5676 C.3     1  UNL1        0.0275
     15 C         141.1872  142.1703  168.1054 C.3     1  UNL1        0.0053
     16 C         140.3140  143.1753  168.7962 C.3     1  UNL1        0.0322
     17 C         140.8211  143.9045  170.0050 C.3     1  UNL1        0.1422
     18 O         142.2016  143.6286  170.5229 O.3     1  UNL1       -0.3538
     19 C         143.0749  142.6235  169.8321 C.3     1  UNL1        0.1422
     20 C         142.5677  141.8943  168.6233 C.3     1  UNL1        0.0322
     21 C         141.4770  145.8465  158.1551 C.3     1  UNL1        0.1152
     22 N         141.1879  144.5549  158.8610 N.am    1  UNL1       -0.2743
     23 C         140.2694  144.5375  160.0467 C.2     1  UNL1        0.2491
     24 O         139.6400  145.8116  160.5265 O.2     1  UNL1       -0.2699
     25 C         141.8174  143.2807  158.3811 C.3     1  UNL1        0.0943
     26 C         143.1715  142.8771  158.8846 C.3     1  UNL1        0.0311
     27 C         143.3025  141.7421  159.8566 C.3     1  UNL1        0.0868
     28 C         143.7609  142.0060  161.2602 C.2     1  UNL1        0.2226
     29 O         144.4944  143.2738  161.5839 O.2     1  UNL1       -0.2751
     30 N         143.4858  141.0020  162.3402 N.am    1  UNL1       -0.3020
     31 H         143.0044  140.1699  162.1278 H       1  UNL1        0.1495
     32 C         143.9442  141.2658  163.7439 C.3     1  UNL1        0.1213
     33 C         145.3916  141.1048  164.1030 C.3     1  UNL1        0.1583
     34 O         146.4488  141.7709  163.2731 O.3     1  UNL1       -0.3802
     35 H         146.4572  141.3798  162.3855 H       1  UNL1        0.2105
@<TRIPOS>BOND
     1    21    22    1
     2    22    25    1
     3    25    26    1
     4    26    27    1
     5    27    28    1
     6    28    29    2
     7    28    30   am
     8    30    32    1
     9    32    33    1
    10    33    34    1
    11    22    23   am
    12    23    24    2
    13    23     1    1
    14     1     2   ar
    15     2     3   ar
    16     3     4   ar
    17     4     5   ar
    18     5     6   ar
    19     5     7   ar
    20     7     8   ar
    21     8     9   ar
    22     9    10    1
    23     8    11    1
    24    11    12    1
    25    12    13    1
    26    13    15    1
    27    15    16    1
    28    16    17    1
    29    17    18    1
    30    18    19    1
    31    19    20    1
    32    13    14    1
    33     6     1   ar
    34    14     7    1
    35     9     4   ar
    36    20    15    1
    37    30    31    1
    38    34    35    1
@<TRIPOS>MOLECULE
*****
 35 38 0 0 0
SMALL
GASTEIGER

@<TRIPOS>ATOM
      1 C         140.3026  142.3583  160.7243 C.ar    1  UNL1        0.0537
      2 C         139.7567  141.1255  160.0668 C.ar    1  UNL1        0.0060
      3 C         139.4119  139.9237  160.8955 C.ar    1  UNL1        0.0173
      4 C         139.6129  139.9546  162.3816 C.ar    1  UNL1        0.0594
      5 C         140.1587  141.1873  163.0391 C.ar    1  UNL1        0.0130
      6 C         140.5035  142.3892  162.2105 C.ar    1  UNL1        0.0057
      7 C         140.2484  140.9253  164.5134 C.ar    1  UNL1       -0.0091
      8 C         139.7580  139.5306  164.7669 C.ar    1  UNL1        0.0331
      9 N         139.3652  138.9307  163.4494 N.ar    1  UNL1       -0.3289
     10 C         138.8204  137.5494  163.2370 C.3     1  UNL1        0.1301
     11 C         139.7324  138.9871  166.1647 C.3     1  UNL1        0.0435
     12 C         140.1973  139.8384  167.3090 C.3     1  UNL1        0.0066
     13 C         140.6877  141.2330  167.0554 C.3     1  UNL1        0.0049
     14 C         140.7133  141.7765  165.6575 C.3     1  UNL1        0.0275
     15 C         141.1526  142.0843  168.1997 C.3     1  UNL1        0.0053
     16 C         140.2357  143.1151  168.7885 C.3     1  UNL1        0.0322
     17 C         140.7006  143.9663  169.9328 C.3     1  UNL1        0.1422
     18 O         142.0825  143.7867  170.4882 O.3     1  UNL1       -0.3538
     19 C         142.9993  142.7559  169.8994 C.3     1  UNL1        0.1422
     20 C         142.5344  141.9046  168.7551 C.3     1  UNL1        0.0322
     21 C         142.2735  144.7931  158.2878 C.3     1  UNL1        0.1152
     22 N         141.9287  143.5913  159.1164 N.am    1  UNL1       -0.2743
     23 C         140.6474  143.5601  159.8957 C.2     1  UNL1        0.2491
     24 O         139.7110  144.7309  159.8464 O.2     1  UNL1       -0.2699
     25 C         142.8651  142.4205  159.1657 C.3     1  UNL1        0.0943
     26 C         144.2501  142.5905  159.7161 C.3     1  UNL1        0.0311
     27 C         144.5805  142.0784  161.0868 C.3     1  UNL1        0.0868
     28 C         144.1302  142.8373  162.2997 C.2     1  UNL1        0.2226
     29 O         143.9692  142.1276  163.6114 O.2     1  UNL1       -0.2751
     30 N         143.8410  144.3058  162.2010 N.am    1  UNL1       -0.3020
     31 H         143.9468  144.7715  161.3401 H       1  UNL1        0.1495
     32 C         143.3907  145.0647  163.4139 C.3     1  UNL1        0.1213
     33 C         141.9420  145.4137  163.5853 C.3     1  UNL1        0.1583
     34 O         141.1282  145.8410  162.3999 O.3     1  UNL1       -0.3802
     35 H         141.4614  146.6894  162.0679 H       1  UNL1        0.2105
@<TRIPOS>BOND
     1    21    22    1
     2    22    25    1
     3    25    26    1
     4    26    27    1
     5    27    28    1
     6    28    29    2
     7    28    30   am
     8    30    32    1
     9    32    33    1
    10    33    34    1
    11    22    23   am
    12    23    24    2
    13    23     1    1
    14     1     2   ar
    15     2     3   ar
    16     3     4   ar
    17     4     5   ar
    18     5     6   ar
    19     5     7   ar
    20     7     8   ar
    21     8     9   ar
    22     9    10    1
    23     8    11    1
    24    11    12    1
    25    12    13    1
    26    13    15    1
    27    15    16    1
    28    16    17    1
    29    17    18    1
    30    18    19    1
    31    19    20    1
    32    13    14    1
    33     6     1   ar
    34    14     7    1
    35     9     4   ar
    36    20    15    1
    37    30    31    1
    38    34    35    1
@<TRIPOS>MOLECULE
*****
 35 38 0 0 0
SMALL
GASTEIGER

@<TRIPOS>ATOM
      1 C         140.2653  140.6326  167.0540 C.ar    1  UNL1        0.0537
      2 C         141.4368  140.9872  167.9210 C.ar    1  UNL1        0.0060
      3 C         142.5428  141.8409  167.3750 C.ar    1  UNL1        0.0173
      4 C         142.4773  142.3398  165.9620 C.ar    1  UNL1        0.0594
      5 C         141.3058  141.9852  165.0949 C.ar    1  UNL1        0.0130
      6 C         140.1998  141.1315  165.6409 C.ar    1  UNL1        0.0057
      7 C         141.5151  142.6183  163.7512 C.ar    1  UNL1       -0.0091
      8 C         142.8160  143.3642  163.7879 C.ar    1  UNL1        0.0331
      9 N         143.4106  143.1921  165.1542 N.ar    1  UNL1       -0.3289
     10 C         144.7104  143.7707  165.6293 C.3     1  UNL1        0.1301
     11 C         143.2910  144.1037  162.5725 C.3     1  UNL1        0.0435
     12 C         142.4651  144.0973  161.3203 C.3     1  UNL1        0.0066
     13 C         141.1643  143.3514  161.2836 C.3     1  UNL1        0.0049
     14 C         140.6893  142.6119  162.4991 C.3     1  UNL1        0.0275
     15 C         140.3384  143.3450  160.0315 C.3     1  UNL1        0.0053
     16 C         140.6886  144.2621  158.8973 C.3     1  UNL1        0.0322
     17 C         139.8628  144.2557  157.6452 C.3     1  UNL1        0.1422
     18 O         138.6866  143.3322  157.5272 O.3     1  UNL1       -0.3538
     19 C         138.3363  142.4152  158.6613 C.3     1  UNL1        0.1422
     20 C         139.1622  142.4215  159.9135 C.3     1  UNL1        0.0322
     21 C         137.2992  138.0021  167.2355 C.3     1  UNL1        0.1152
     22 N         138.4052  138.8557  166.6895 N.am    1  UNL1       -0.2743
     23 C         139.1593  139.7790  167.6000 C.2     1  UNL1        0.2491
     24 O         138.8074  139.8486  169.0564 O.2     1  UNL1       -0.2699
     25 C         138.7572  138.7861  165.2330 C.3     1  UNL1        0.0943
     26 C         139.4791  137.5875  164.6924 C.3     1  UNL1        0.0311
     27 C         140.9781  137.5393  164.7201 C.3     1  UNL1        0.0868
     28 C         141.7745  138.4625  163.8463 C.2     1  UNL1        0.2226
     29 O         141.1878  138.9733  162.5638 O.2     1  UNL1       -0.2751
     30 N         143.1575  138.8748  164.2551 N.am    1  UNL1       -0.3020
     31 H         143.5426  138.5395  165.0968 H       1  UNL1        0.1495
     32 C         143.9540  139.7980  163.3813 C.3     1  UNL1        0.1213
     33 C         145.2158  140.4203  163.9014 C.3     1  UNL1        0.1583
     34 O         145.8955  141.5042  163.1183 O.3     1  UNL1       -0.3802
     35 H         146.2267  141.1400  162.2825 H       1  UNL1        0.2105
@<TRIPOS>BOND
     1    21    22    1
     2    22    25    1
     3    25    26    1
     4    26    27    1
     5    27    28    1
     6    28    29    2
     7    28    30   am
     8    30    32    1
     9    32    33    1
    10    33    34    1
    11    22    23   am
    12    23    24    2
    13    23     1    1
    14     1     2   ar
    15     2     3   ar
    16     3     4   ar
    17     4     5   ar
    18     5     6   ar
    19     5     7   ar
    20     7     8   ar
    21     8     9   ar
    22     9    10    1
    23     8    11    1
    24    11    12    1
    25    12    13    1
    26    13    15    1
    27    15    16    1
    28    16    17    1
    29    17    18    1
    30    18    19    1
    31    19    20    1
    32    13    14    1
    33     6     1   ar
    34    14     7    1
    35     9     4   ar
    36    20    15    1
    37    30    31    1
    38    34    35    1
@<TRIPOS>MOLECULE
*****
 35 38 0 0 0
SMALL
GASTEIGER

@<TRIPOS>ATOM
      1 C         140.5168  140.4783  160.2668 C.ar    1  UNL1        0.0537
      2 C         140.0647  141.7061  159.5332 C.ar    1  UNL1        0.0060
      3 C         139.6961  142.9432  160.2972 C.ar    1  UNL1        0.0173
      4 C         139.7796  142.9526  161.7948 C.ar    1  UNL1        0.0594
      5 C         140.2317  141.7249  162.5284 C.ar    1  UNL1        0.0130
      6 C         140.6003  140.4878  161.7645 C.ar    1  UNL1        0.0057
      7 C         140.2149  142.0299  163.9970 C.ar    1  UNL1       -0.0091
      8 C         139.7524  143.4462  164.1710 C.ar    1  UNL1        0.0331
      9 N         139.4834  144.0164  162.8099 N.ar    1  UNL1       -0.3289
     10 C         139.0025  145.4064  162.5156 C.3     1  UNL1        0.1301
     11 C         139.6359  144.0336  165.5462 C.3     1  UNL1        0.0435
     12 C         139.9820  143.2047  166.7475 C.3     1  UNL1        0.0066
     13 C         140.4445  141.7884  166.5736 C.3     1  UNL1        0.0049
     14 C         140.5609  141.2011  165.1983 C.3     1  UNL1        0.0275
     15 C         140.7906  140.9596  167.7749 C.3     1  UNL1        0.0053
     16 C         139.8531  140.9063  168.9447 C.3     1  UNL1        0.0322
     17 C         140.1992  140.0774  170.1461 C.3     1  UNL1        0.1422
     18 O         141.4828  139.3018  170.1776 O.3     1  UNL1       -0.3538
     19 C         142.4202  139.3550  169.0078 C.3     1  UNL1        0.1422
     20 C         142.0741  140.1839  167.8065 C.3     1  UNL1        0.0322
     21 C         142.6968  137.6786  158.4895 C.3     1  UNL1        0.1152
     22 N         142.3282  138.9158  159.2534 N.am    1  UNL1       -0.2743
     23 C         140.8854  139.2412  159.5029 C.2     1  UNL1        0.2491
     24 O         139.8112  138.3295  158.9883 O.2     1  UNL1       -0.2699
     25 C         143.4026  139.8275  159.7680 C.3     1  UNL1        0.0943
     26 C         144.3113  139.3688  160.8698 C.3     1  UNL1        0.0311
     27 C         144.0800  139.8363  162.2762 C.3     1  UNL1        0.0868
     28 C         144.5490  141.1962  162.7013 C.2     1  UNL1        0.2226
     29 O         146.0163  141.5050  162.7411 O.2     1  UNL1       -0.2751
     30 N         143.5506  142.2473  163.0865 N.am    1  UNL1       -0.3020
     31 H         142.5875  142.0446  163.0603 H       1  UNL1        0.1495
     32 C         144.0195  143.6073  163.5115 C.3     1  UNL1        0.1213
     33 C         143.2374  144.8262  163.1212 C.3     1  UNL1        0.1583
     34 O         142.6738  144.9438  161.7361 O.3     1  UNL1       -0.3802
     35 H         143.3998  145.0048  161.0957 H       1  UNL1        0.2105
@<TRIPOS>BOND
     1    21    22    1
     2    22    25    1
     3    25    26    1
     4    26    27    1
     5    27    28    1
     6    28    29    2
     7    28    30   am
     8    30    32    1
     9    32    33    1
    10    33    34    1
    11    22    23   am
    12    23    24    2
    13    23     1    1
    14     1     2   ar
    15     2     3   ar
    16     3     4   ar
    17     4     5   ar
    18     5     6   ar
    19     5     7   ar
    20     7     8   ar
    21     8     9   ar
    22     9    10    1
    23     8    11    1
    24    11    12    1
    25    12    13    1
    26    13    15    1
    27    15    16    1
    28    16    17    1
    29    17    18    1
    30    18    19    1
    31    19    20    1
    32    13    14    1
    33     6     1   ar
    34    14     7    1
    35     9     4   ar
    36    20    15    1
    37    30    31    1
    38    34    35    1
@<TRIPOS>MOLECULE
*****
 35 38 0 0 0
SMALL
GASTEIGER

@<TRIPOS>ATOM
      1 C         142.7740  140.6113  161.5047 C.ar    1  UNL1        0.0537
      2 C         142.0193  139.6515  160.6333 C.ar    1  UNL1        0.0060
      3 C         140.8500  138.8941  161.1892 C.ar    1  UNL1        0.0173
      4 C         140.4353  139.0965  162.6165 C.ar    1  UNL1        0.0594
      5 C         141.1900  140.0563  163.4878 C.ar    1  UNL1        0.0130
      6 C         142.3593  140.8137  162.9319 C.ar    1  UNL1        0.0057
      7 C         140.5534  140.0482  164.8461 C.ar    1  UNL1       -0.0091
      8 C         139.4054  139.0833  164.8141 C.ar    1  UNL1        0.0331
      9 N         139.3324  138.4952  163.4362 N.ar    1  UNL1       -0.3289
     10 C         138.3321  137.4833  162.9613 C.3     1  UNL1        0.1301
     11 C         138.5748  138.8650  166.0438 C.3     1  UNL1        0.0435
     12 C         138.8922  139.6115  167.3056 C.3     1  UNL1        0.0066
     13 C         140.0402  140.5764  167.3375 C.3     1  UNL1        0.0049
     14 C         140.8708  140.7947  166.1077 C.3     1  UNL1        0.0275
     15 C         140.3577  141.3229  168.5993 C.3     1  UNL1        0.0053
     16 C         140.4569  142.8195  168.5804 C.3     1  UNL1        0.0322
     17 C         140.7743  143.5660  169.8422 C.3     1  UNL1        0.1422
     18 O         140.9925  142.8159  171.1228 O.3     1  UNL1       -0.3538
     19 C         140.8933  141.3193  171.1416 C.3     1  UNL1        0.1422
     20 C         140.5759  140.5728  169.8798 C.3     1  UNL1        0.0322
     21 C         144.9876  142.8408  159.0800 C.3     1  UNL1        0.1152
     22 N         143.8183  142.0834  159.6359 N.am    1  UNL1       -0.2743
     23 C         143.9433  141.3687  160.9487 C.2     1  UNL1        0.2491
     24 O         145.2375  141.4115  161.7057 O.2     1  UNL1       -0.2699
     25 C         142.5240  142.0407  158.8789 C.3     1  UNL1        0.0943
     26 C         141.5786  143.2034  158.9435 C.3     1  UNL1        0.0311
     27 C         141.5201  144.0549  160.1771 C.3     1  UNL1        0.0868
     28 C         140.4997  143.7684  161.2385 C.2     1  UNL1        0.2226
     29 O         140.8706  143.8870  162.6871 O.2     1  UNL1       -0.2751
     30 N         139.1083  143.3633  160.8513 N.am    1  UNL1       -0.3020
     31 H         138.8649  143.2854  159.9005 H       1  UNL1        0.1495
     32 C         138.0878  143.0767  161.9127 C.3     1  UNL1        0.1213
     33 C         137.8617  141.6678  162.3749 C.3     1  UNL1        0.1583
     34 O         136.5885  141.3050  163.0800 O.3     1  UNL1       -0.3802
     35 H         136.5495  141.7641  163.9336 H       1  UNL1        0.2105
@<TRIPOS>BOND
     1    21    22    1
     2    22    25    1
     3    25    26    1
     4    26    27    1
     5    27    28    1
     6    28    29    2
     7    28    30   am
     8    30    32    1
     9    32    33    1
    10    33    34    1
    11    22    23   am
    12    23    24    2
    13    23     1    1
    14     1     2   ar
    15     2     3   ar
    16     3     4   ar
    17     4     5   ar
    18     5     6   ar
    19     5     7   ar
    20     7     8   ar
    21     8     9   ar
    22     9    10    1
    23     8    11    1
    24    11    12    1
    25    12    13    1
    26    13    15    1
    27    15    16    1
    28    16    17    1
    29    17    18    1
    30    18    19    1
    31    19    20    1
    32    13    14    1
    33     6     1   ar
    34    14     7    1
    35     9     4   ar
    36    20    15    1
    37    30    31    1
    38    34    35    1
@<TRIPOS>MOLECULE
*****
 35 38 0 0 0
SMALL
GASTEIGER

@<TRIPOS>ATOM
      1 C         141.7881  142.9563  160.3124 C.ar    1  UNL1        0.0537
      2 C         142.2313  141.7872  159.4837 C.ar    1  UNL1        0.0060
      3 C         142.6935  140.5264  160.1520 C.ar    1  UNL1        0.0173
      4 C         142.7125  140.4346  161.6490 C.ar    1  UNL1        0.0594
      5 C         142.2693  141.6036  162.4778 C.ar    1  UNL1        0.0130
      6 C         141.8071  142.8645  161.8095 C.ar    1  UNL1        0.0057
      7 C         142.3966  141.2222  163.9229 C.ar    1  UNL1       -0.0091
      8 C         142.9184  139.8174  163.9873 C.ar    1  UNL1        0.0331
      9 N         143.1137  139.3306  162.5819 N.ar    1  UNL1       -0.3289
     10 C         143.6210  137.9775  162.1800 C.3     1  UNL1        0.1301
     11 C         143.1484  139.1629  165.3171 C.3     1  UNL1        0.0435
     12 C         142.8565  139.9132  166.5828 C.3     1  UNL1        0.0066
     13 C         142.3346  141.3180  166.5184 C.3     1  UNL1        0.0049
     14 C         142.1047  141.9725  165.1885 C.3     1  UNL1        0.0275
     15 C         142.0427  142.0684  167.7840 C.3     1  UNL1        0.0053
     16 C         140.6969  142.6981  167.9892 C.3     1  UNL1        0.0322
     17 C         140.4050  143.4485  169.2548 C.3     1  UNL1        0.1422
     18 O         141.4590  143.5691  170.3153 O.3     1  UNL1       -0.3538
     19 C         142.8049  142.9394  170.1102 C.3     1  UNL1        0.1422
     20 C         143.0968  142.1890  168.8446 C.3     1  UNL1        0.0322
     21 C         139.7798  145.4241  157.9404 C.3     1  UNL1        0.1152
     22 N         140.2420  144.1632  158.6087 N.am    1  UNL1       -0.2743
     23 C         141.3259  144.2171  159.6441 C.2     1  UNL1        0.2491
     24 O         141.9477  145.5319  160.0112 O.2     1  UNL1       -0.2699
     25 C         139.6202  142.8484  158.2416 C.3     1  UNL1        0.0943
     26 C         138.3457  142.4114  158.9008 C.3     1  UNL1        0.0311
     27 C         138.3928  141.5410  160.1216 C.3     1  UNL1        0.0868
     28 C         138.3247  142.1592  161.4866 C.2     1  UNL1        0.2226
     29 O         138.7236  141.3609  162.6922 O.2     1  UNL1       -0.2751
     30 N         137.8578  143.5757  161.6459 N.am    1  UNL1       -0.3020
     31 H         137.5960  144.0997  160.8545 H       1  UNL1        0.1495
     32 C         137.7897  144.1940  163.0109 C.3     1  UNL1        0.1213
     33 C         139.0378  144.7090  163.6641 C.3     1  UNL1        0.1583
     34 O         138.9978  145.1883  165.0849 O.3     1  UNL1       -0.3802
     35 H         138.4446  145.9829  165.1426 H       1  UNL1        0.2105
@<TRIPOS>BOND
     1    21    22    1
     2    22    25    1
     3    25    26    1
     4    26    27    1
     5    27    28    1
     6    28    29    2
     7    28    30   am
     8    30    32    1
     9    32    33    1
    10    33    34    1
    11    22    23   am
    12    23    24    2
    13    23     1    1
    14     1     2   ar
    15     2     3   ar
    16     3     4   ar
    17     4     5   ar
    18     5     6   ar
    19     5     7   ar
    20     7     8   ar
    21     8     9   ar
    22     9    10    1
    23     8    11    1
    24    11    12    1
    25    12    13    1
    26    13    15    1
    27    15    16    1
    28    16    17    1
    29    17    18    1
    30    18    19    1
    31    19    20    1
    32    13    14    1
    33     6     1   ar
    34    14     7    1
    35     9     4   ar
    36    20    15    1
    37    30    31    1
    38    34    35    1
@<TRIPOS>MOLECULE
*****
 35 38 0 0 0
SMALL
GASTEIGER

@<TRIPOS>ATOM
      1 C         140.7675  140.6708  159.3777 C.ar    1  UNL1        0.0537
      2 C         140.7189  141.9121  158.5371 C.ar    1  UNL1        0.0060
      3 C         140.4981  143.2475  159.1836 C.ar    1  UNL1        0.0173
      4 C         140.3259  143.3415  160.6707 C.ar    1  UNL1        0.0594
      5 C         140.3745  142.1002  161.5113 C.ar    1  UNL1        0.0130
      6 C         140.5953  140.7648  160.8647 C.ar    1  UNL1        0.0057
      7 C         140.1737  142.5014  162.9427 C.ar    1  UNL1       -0.0091
      8 C         140.0010  143.9907  162.9867 C.ar    1  UNL1        0.0331
      9 N         140.0951  144.5100  161.5825 N.ar    1  UNL1       -0.3289
     10 C         139.9788  145.9456  161.1637 C.3     1  UNL1        0.1301
     11 C         139.7804  144.6817  164.2996 C.3     1  UNL1        0.0435
     12 C         139.7325  143.8833  165.5685 C.3     1  UNL1        0.0066
     13 C         139.9052  142.3939  165.5245 C.3     1  UNL1        0.0049
     14 C         140.1258  141.7030  164.2115 C.3     1  UNL1        0.0275
     15 C         139.8573  141.5955  166.7935 C.3     1  UNL1        0.0053
     16 C         139.1525  140.2717  166.8205 C.3     1  UNL1        0.0322
     17 C         139.1046  139.4733  168.0895 C.3     1  UNL1        0.1422
     18 O         139.7615  139.9988  169.3315 O.3     1  UNL1       -0.3538
     19 C         140.4663  141.3226  169.3044 C.3     1  UNL1        0.1422
     20 C         140.5142  142.1210  168.0355 C.3     1  UNL1        0.0322
     21 C         142.6038  137.4881  157.8783 C.3     1  UNL1        0.1152
     22 N         142.3830  138.8234  158.5248 N.am    1  UNL1       -0.2743
     23 C         140.9883  139.3354  158.7311 C.2     1  UNL1        0.2491
     24 O         139.8144  138.5119  158.2910 O.2     1  UNL1       -0.2699
     25 C         143.5571  139.6469  158.9650 C.3     1  UNL1        0.0943
     26 C         144.1111  139.4832  160.3492 C.3     1  UNL1        0.0311
     27 C         143.7976  138.2487  161.1415 C.3     1  UNL1        0.0868
     28 C         142.7688  138.2985  162.2319 C.2     1  UNL1        0.2226
     29 O         142.8415  139.3658  163.2834 O.2     1  UNL1       -0.2751
     30 N         141.6674  137.2811  162.2709 N.am    1  UNL1       -0.3020
     31 H         141.6197  136.5806  161.5807 H       1  UNL1        0.1495
     32 C         140.6385  137.3309  163.3614 C.3     1  UNL1        0.1213
     33 C         139.2401  137.7773  163.0533 C.3     1  UNL1        0.1583
     34 O         138.7035  137.6534  161.6581 O.3     1  UNL1       -0.3802
     35 H         139.1965  138.2451  161.0683 H       1  UNL1        0.2105
@<TRIPOS>BOND
     1    21    22    1
     2    22    25    1
     3    25    26    1
     4    26    27    1
     5    27    28    1
     6    28    29    2
     7    28    30   am
     8    30    32    1
     9    32    33    1
    10    33    34    1
    11    22    23   am
    12    23    24    2
    13    23     1    1
    14     1     2   ar
    15     2     3   ar
    16     3     4   ar
    17     4     5   ar
    18     5     6   ar
    19     5     7   ar
    20     7     8   ar
    21     8     9   ar
    22     9    10    1
    23     8    11    1
    24    11    12    1
    25    12    13    1
    26    13    15    1
    27    15    16    1
    28    16    17    1
    29    17    18    1
    30    18    19    1
    31    19    20    1
    32    13    14    1
    33     6     1   ar
    34    14     7    1
    35     9     4   ar
    36    20    15    1
    37    30    31    1
    38    34    35    1
