@<TRIPOS>MOLECULE
*****
 30 33 0 0 0
SMALL
GASTEIGER

@<TRIPOS>ATOM
      1 N         140.4645  144.3492  160.8438 N.ar    1  UNL1       -0.2270
      2 N         140.0051  145.0762  159.6149 N.ar    1  UNL1       -0.1694
      3 C         141.0527  144.9034  158.5553 C.ar    1  UNL1        0.0802
      4 C         142.1596  144.0695  159.1294 C.ar    1  UNL1        0.0356
      5 C         141.7961  143.7271  160.5438 C.ar    1  UNL1        0.0841
      6 C         141.0023  145.4656  157.1655 C.3     1  UNL1        0.0467
      7 C         140.0163  146.5446  156.8283 C.3     1  UNL1        0.0333
      8 C         139.9658  147.1068  155.4387 C.3     1  UNL1        0.0931
      9 C         139.5390  147.9502  154.2740 C.3     1  UNL1        0.0296
     10 C         138.8821  147.9164  156.0867 C.3     1  UNL1        0.0296
     11 O         140.9014  146.5901  154.3862 O.3     1  UNL1       -0.3633
     12 C         141.8873  145.5112  154.7233 C.3     1  UNL1        0.0931
     13 C         142.9886  144.5063  154.5579 C.3     1  UNL1        0.0296
     14 C         142.2193  145.7245  153.2762 C.3     1  UNL1        0.0296
     15 C         141.9378  144.9489  156.1130 C.3     1  UNL1        0.0333
     16 C         142.6195  142.9065  161.4918 C.ar    1  UNL1        0.0178
     17 C         142.2287  141.4898  161.7918 C.ar    1  UNL1        0.0024
     18 C         143.0522  140.6693  162.7398 C.ar    1  UNL1        0.0114
     19 C         144.2665  141.2655  163.3877 C.ar    1  UNL1        0.0577
     20 CL        145.0900  140.4449  164.3357 Cl      1  UNL1       -0.0822
     21 C         144.6575  142.6823  163.0877 C.ar    1  UNL1        0.0114
     22 C         143.8339  143.5027  162.1397 C.ar    1  UNL1        0.0024
     23 C         138.4276  143.5069  162.2191 C.ar    1  UNL1        0.1562
     24 C         137.6857  143.4177  163.5198 C.ar    1  UNL1        0.0385
     25 C         138.2390  144.0815  164.7458 C.ar    1  UNL1        0.0032
     26 C         139.5341  144.8345  164.6712 C.ar    1  UNL1        0.0017
     27 C         140.2760  144.9238  163.3706 C.ar    1  UNL1        0.0222
     28 C         139.7227  144.2600  162.1446 C.ar    1  UNL1        0.1166
     29 C         138.4411  141.5344  160.5283 C.3     1  UNL1        0.2525
     30 O         137.8743  142.8431  160.9930 O.3     1  UNL1       -0.4699
@<TRIPOS>BOND
     1    29    30    1
     2    30    23    1
     3    23    24   ar
     4    24    25   ar
     5    25    26   ar
     6    26    27   ar
     7    27    28   ar
     8    28     1    1
     9     1     2   ar
    10     2     3   ar
    11     3     6    1
    12     6     7    1
    13     7     8    1
    14     8     9    1
    15     8    10    1
    16     8    11    1
    17    11    12    1
    18    12    13    1
    19    12    14    1
    20    12    15    1
    21     3     4   ar
    22     4     5   ar
    23     5    16    1
    24    16    17   ar
    25    17    18   ar
    26    18    19   ar
    27    19    20    1
    28    19    21   ar
    29    21    22   ar
    30    28    23   ar
    31     5     1   ar
    32    22    16   ar
    33    15     6    1
@<TRIPOS>MOLECULE
*****
 30 33 0 0 0
SMALL
GASTEIGER

@<TRIPOS>ATOM
      1 N         140.4877  144.3356  160.8561 N.ar    1  UNL1       -0.2270
      2 N         140.0238  145.0626  159.6289 N.ar    1  UNL1       -0.1694
      3 C         141.0679  144.8906  158.5657 C.ar    1  UNL1        0.0802
      4 C         142.1772  144.0572  159.1359 C.ar    1  UNL1        0.0356
      5 C         141.8186  143.7142  160.5515 C.ar    1  UNL1        0.0841
      6 C         141.0125  145.4531  157.1763 C.3     1  UNL1        0.0467
      7 C         141.9373  144.9296  156.1177 C.3     1  UNL1        0.0333
      8 C         141.8819  145.4920  154.7284 C.3     1  UNL1        0.0931
      9 C         142.2060  145.7029  153.2790 C.3     1  UNL1        0.0296
     10 C         142.9747  144.4792  154.5558 C.3     1  UNL1        0.0296
     11 O         140.9016  146.5782  154.3975 O.3     1  UNL1       -0.3633
     12 C         139.9768  147.1018  155.4560 C.3     1  UNL1        0.0931
     13 C         138.9032  147.9193  156.1111 C.3     1  UNL1        0.0296
     14 C         139.5486  147.9482  154.2941 C.3     1  UNL1        0.0296
     15 C         140.0322  146.5392  156.8455 C.3     1  UNL1        0.0333
     16 C         142.6457  142.8939  161.4964 C.ar    1  UNL1        0.0178
     17 C         142.3113  141.4498  161.7260 C.ar    1  UNL1        0.0024
     18 C         143.1384  140.6294  162.6710 C.ar    1  UNL1        0.0114
     19 C         144.2999  141.2532  163.3864 C.ar    1  UNL1        0.0577
     20 CL        145.1270  140.4328  164.3314 Cl      1  UNL1       -0.0822
     21 C         144.6343  142.6974  163.1569 C.ar    1  UNL1        0.0114
     22 C         143.8072  143.5176  162.2119 C.ar    1  UNL1        0.0024
     23 C         138.4533  143.4962  162.2370 C.ar    1  UNL1        0.1562
     24 C         137.7159  143.4063  163.5400 C.ar    1  UNL1        0.0385
     25 C         138.2755  144.0658  164.7655 C.ar    1  UNL1        0.0032
     26 C         139.5726  144.8152  164.6879 C.ar    1  UNL1        0.0017
     27 C         140.3100  144.9052  163.3848 C.ar    1  UNL1        0.0222
     28 C         139.7503  144.2457  162.1593 C.ar    1  UNL1        0.1166
     29 C         138.3830  141.4797  160.6003 C.3     1  UNL1        0.2525
     30 O         137.8937  142.8367  161.0114 O.3     1  UNL1       -0.4699
@<TRIPOS>BOND
     1    29    30    1
     2    30    23    1
     3    23    24   ar
     4    24    25   ar
     5    25    26   ar
     6    26    27   ar
     7    27    28   ar
     8    28     1    1
     9     1     2   ar
    10     2     3   ar
    11     3     6    1
    12     6     7    1
    13     7     8    1
    14     8     9    1
    15     8    10    1
    16     8    11    1
    17    11    12    1
    18    12    13    1
    19    12    14    1
    20    12    15    1
    21     3     4   ar
    22     4     5   ar
    23     5    16    1
    24    16    17   ar
    25    17    18   ar
    26    18    19   ar
    27    19    20    1
    28    19    21   ar
    29    21    22   ar
    30    28    23   ar
    31     5     1   ar
    32    22    16   ar
    33    15     6    1
@<TRIPOS>MOLECULE
*****
 30 33 0 0 0
SMALL
GASTEIGER

@<TRIPOS>ATOM
      1 N         140.3687  140.7642  164.4976 N.ar    1  UNL1       -0.2270
      2 N         140.4651  141.0559  163.0295 N.ar    1  UNL1       -0.1694
      3 C         141.3745  142.2352  162.8499 C.ar    1  UNL1        0.0802
      4 C         141.8403  142.6723  164.2072 C.ar    1  UNL1        0.0356
      5 C         141.2186  141.7632  165.2255 C.ar    1  UNL1        0.0841
      6 C         141.7521  142.8665  161.5427 C.3     1  UNL1        0.0467
      7 C         141.0340  144.0949  161.0679 C.3     1  UNL1        0.0333
      8 C         141.4114  144.7262  159.7608 C.3     1  UNL1        0.0931
      9 C         141.4080  145.6799  158.6029 C.3     1  UNL1        0.0296
     10 C         140.3146  145.6545  160.1912 C.3     1  UNL1        0.0296
     11 O         142.5071  144.1291  158.9282 O.3     1  UNL1       -0.3633
     12 C         143.2252  142.9008  159.4029 C.3     1  UNL1        0.0931
     13 C         144.1909  141.7532  159.4265 C.3     1  UNL1        0.0296
     14 C         143.9381  143.1336  158.1038 C.3     1  UNL1        0.0296
     15 C         142.8477  142.2695  160.7101 C.3     1  UNL1        0.0333
     16 C         141.4127  141.8396  166.7109 C.ar    1  UNL1        0.0178
     17 C         140.5837  142.7856  167.5280 C.ar    1  UNL1        0.0024
     18 C         140.7778  142.8620  169.0134 C.ar    1  UNL1        0.0114
     19 C         141.8011  141.9924  169.6818 C.ar    1  UNL1        0.0577
     20 CL        141.9952  142.0688  171.1672 Cl      1  UNL1       -0.0822
     21 C         142.6302  141.0463  168.8647 C.ar    1  UNL1        0.0114
     22 C         142.4360  140.9699  167.3793 C.ar    1  UNL1        0.0024
     23 C         139.7431  138.2485  164.6715 C.ar    1  UNL1        0.1562
     24 C         138.9382  137.1506  165.3012 C.ar    1  UNL1        0.0385
     25 C         137.9538  137.4704  166.3869 C.ar    1  UNL1        0.0032
     26 C         137.7744  138.8881  166.8429 C.ar    1  UNL1        0.0017
     27 C         138.5793  139.9861  166.2131 C.ar    1  UNL1        0.0222
     28 C         139.5637  139.6663  165.1275 C.ar    1  UNL1        0.1166
     29 C         140.2536  137.7424  162.1748 C.3     1  UNL1        0.2525
     30 O         140.7275  137.9288  163.5858 O.3     1  UNL1       -0.4699
@<TRIPOS>BOND
     1    29    30    1
     2    30    23    1
     3    23    24   ar
     4    24    25   ar
     5    25    26   ar
     6    26    27   ar
     7    27    28   ar
     8    28     1    1
     9     1     2   ar
    10     2     3   ar
    11     3     6    1
    12     6     7    1
    13     7     8    1
    14     8     9    1
    15     8    10    1
    16     8    11    1
    17    11    12    1
    18    12    13    1
    19    12    14    1
    20    12    15    1
    21     3     4   ar
    22     4     5   ar
    23     5    16    1
    24    16    17   ar
    25    17    18   ar
    26    18    19   ar
    27    19    20    1
    28    19    21   ar
    29    21    22   ar
    30    28    23   ar
    31     5     1   ar
    32    22    16   ar
    33    15     6    1
@<TRIPOS>MOLECULE
*****
 30 33 0 0 0
SMALL
GASTEIGER

@<TRIPOS>ATOM
      1 N         140.2903  140.7004  164.6097 N.ar    1  UNL1       -0.2270
      2 N         140.3974  140.9970  163.1432 N.ar    1  UNL1       -0.1694
      3 C         141.3169  142.1699  162.9734 C.ar    1  UNL1        0.0802
      4 C         141.7781  142.5982  164.3350 C.ar    1  UNL1        0.0356
      5 C         141.1436  141.6900  165.3463 C.ar    1  UNL1        0.0841
      6 C         141.7067  142.8032  161.6708 C.3     1  UNL1        0.0467
      7 C         142.8165  142.2130  160.8523 C.3     1  UNL1        0.0333
      8 C         143.2064  142.8463  159.5497 C.3     1  UNL1        0.0931
      9 C         143.9340  143.0834  158.2596 C.3     1  UNL1        0.0296
     10 C         144.1791  141.7050  159.5858 C.3     1  UNL1        0.0296
     11 O         142.4864  144.0700  159.0656 O.3     1  UNL1       -0.3633
     12 C         141.3766  144.6602  159.8840 C.3     1  UNL1        0.0931
     13 C         140.2685  145.5815  160.3003 C.3     1  UNL1        0.0296
     14 C         141.3817  145.6135  158.7259 C.3     1  UNL1        0.0296
     15 C         140.9867  144.0268  161.1866 C.3     1  UNL1        0.0333
     16 C         141.3298  141.7593  166.8330 C.ar    1  UNL1        0.0178
     17 C         140.5558  142.7591  167.6401 C.ar    1  UNL1        0.0024
     18 C         140.7420  142.8284  169.1269 C.ar    1  UNL1        0.0114
     19 C         141.7022  141.8979  169.8067 C.ar    1  UNL1        0.0577
     20 CL        141.8884  141.9671  171.2934 Cl      1  UNL1       -0.0822
     21 C         142.4763  140.8980  168.9996 C.ar    1  UNL1        0.0114
     22 C         142.2900  140.8288  167.5128 C.ar    1  UNL1        0.0024
     23 C         139.5449  138.2125  164.6808 C.ar    1  UNL1        0.1562
     24 C         138.7280  137.1184  165.3017 C.ar    1  UNL1        0.0385
     25 C         137.8395  137.4181  166.4725 C.ar    1  UNL1        0.0032
     26 C         137.7679  138.8118  167.0224 C.ar    1  UNL1        0.0017
     27 C         138.5849  139.9059  166.4015 C.ar    1  UNL1        0.0222
     28 C         139.4733  139.6063  165.2307 C.ar    1  UNL1        0.1166
     29 C         141.9039  137.7031  163.7187 C.3     1  UNL1        0.2525
     30 O         140.4334  137.9129  163.5099 O.3     1  UNL1       -0.4699
@<TRIPOS>BOND
     1    29    30    1
     2    30    23    1
     3    23    24   ar
     4    24    25   ar
     5    25    26   ar
     6    26    27   ar
     7    27    28   ar
     8    28     1    1
     9     1     2   ar
    10     2     3   ar
    11     3     6    1
    12     6     7    1
    13     7     8    1
    14     8     9    1
    15     8    10    1
    16     8    11    1
    17    11    12    1
    18    12    13    1
    19    12    14    1
    20    12    15    1
    21     3     4   ar
    22     4     5   ar
    23     5    16    1
    24    16    17   ar
    25    17    18   ar
    26    18    19   ar
    27    19    20    1
    28    19    21   ar
    29    21    22   ar
    30    28    23   ar
    31     5     1   ar
    32    22    16   ar
    33    15     6    1
@<TRIPOS>MOLECULE
*****
 30 33 0 0 0
SMALL
GASTEIGER

@<TRIPOS>ATOM
      1 N         143.1605  139.2880  160.7886 N.ar    1  UNL1       -0.2270
      2 N         143.6582  138.9395  159.4172 N.ar    1  UNL1       -0.1694
      3 C         142.5169  138.3439  158.6473 C.ar    1  UNL1        0.0802
      4 C         141.3137  138.3243  159.5430 C.ar    1  UNL1        0.0356
      5 C         141.7115  138.9078  160.8663 C.ar    1  UNL1        0.0841
      6 C         142.5695  137.8540  157.2306 C.3     1  UNL1        0.0467
      7 C         142.5322  138.8345  156.0960 C.3     1  UNL1        0.0333
      8 C         142.5848  138.3447  154.6793 C.3     1  UNL1        0.0931
      9 C         142.6091  138.3682  153.1797 C.3     1  UNL1        0.0296
     10 C         142.5034  139.8233  154.4407 C.3     1  UNL1        0.0296
     11 O         142.6746  136.8741  154.3971 O.3     1  UNL1       -0.3633
     12 C         142.7118  135.8936  155.5316 C.3     1  UNL1        0.0931
     13 C         142.7749  134.5851  156.2622 C.3     1  UNL1        0.0296
     14 C         142.7863  134.9492  154.3685 C.3     1  UNL1        0.0296
     15 C         142.6593  136.3835  156.9483 C.3     1  UNL1        0.0333
     16 C         140.8173  139.0807  162.0582 C.ar    1  UNL1        0.0178
     17 C         140.2515  137.8774  162.7522 C.ar    1  UNL1        0.0024
     18 C         139.3573  138.0503  163.9441 C.ar    1  UNL1        0.0114
     19 C         139.0289  139.4266  164.4419 C.ar    1  UNL1        0.0577
     20 CL        138.1347  139.5995  165.6338 Cl      1  UNL1       -0.0822
     21 C         139.5948  140.6301  163.7479 C.ar    1  UNL1        0.0114
     22 C         140.4889  140.4570  162.5560 C.ar    1  UNL1        0.0024
     23 C         144.5363  141.2861  161.7184 C.ar    1  UNL1        0.1562
     24 C         145.3455  141.9060  162.8189 C.ar    1  UNL1        0.0385
     25 C         145.5879  141.1475  164.0901 C.ar    1  UNL1        0.0032
     26 C         145.0212  139.7692  164.2608 C.ar    1  UNL1        0.0017
     27 C         144.2120  139.1494  163.1604 C.ar    1  UNL1        0.0222
     28 C         143.9696  139.9078  161.8892 C.ar    1  UNL1        0.1166
     29 C         143.1008  142.9458  160.3274 C.3     1  UNL1        0.2525
     30 O         144.2939  142.0446  160.4472 O.3     1  UNL1       -0.4699
@<TRIPOS>BOND
     1    29    30    1
     2    30    23    1
     3    23    24   ar
     4    24    25   ar
     5    25    26   ar
     6    26    27   ar
     7    27    28   ar
     8    28     1    1
     9     1     2   ar
    10     2     3   ar
    11     3     6    1
    12     6     7    1
    13     7     8    1
    14     8     9    1
    15     8    10    1
    16     8    11    1
    17    11    12    1
    18    12    13    1
    19    12    14    1
    20    12    15    1
    21     3     4   ar
    22     4     5   ar
    23     5    16    1
    24    16    17   ar
    25    17    18   ar
    26    18    19   ar
    27    19    20    1
    28    19    21   ar
    29    21    22   ar
    30    28    23   ar
    31     5     1   ar
    32    22    16   ar
    33    15     6    1
@<TRIPOS>MOLECULE
*****
 30 33 0 0 0
SMALL
GASTEIGER

@<TRIPOS>ATOM
      1 N         143.1911  139.2473  160.8438 N.ar    1  UNL1       -0.2270
      2 N         143.6851  138.9228  159.4652 N.ar    1  UNL1       -0.1694
      3 C         142.5587  138.2848  158.7074 C.ar    1  UNL1        0.0802
      4 C         141.3685  138.2150  159.6177 C.ar    1  UNL1        0.0356
      5 C         141.7593  138.8099  160.9381 C.ar    1  UNL1        0.0841
      6 C         142.6130  137.8014  157.2885 C.3     1  UNL1        0.0467
      7 C         142.6783  136.3311  156.9990 C.3     1  UNL1        0.0333
      8 C         142.7326  135.8477  155.5801 C.3     1  UNL1        0.0931
      9 C         142.7987  134.9083  154.4125 C.3     1  UNL1        0.0296
     10 C         142.7667  134.5345  156.3041 C.3     1  UNL1        0.0296
     11 O         142.7215  136.8348  154.4506 O.3     1  UNL1       -0.3633
     12 C         142.6561  138.3051  154.7400 C.3     1  UNL1        0.0931
     13 C         142.6031  139.7862  154.5089 C.3     1  UNL1        0.0296
     14 C         142.6919  138.3361  153.2408 C.3     1  UNL1        0.0296
     15 C         142.6018  138.7884  156.1590 C.3     1  UNL1        0.0333
     16 C         140.8739  138.9438  162.1414 C.ar    1  UNL1        0.0178
     17 C         140.2910  140.2789  162.4989 C.ar    1  UNL1        0.0024
     18 C         139.4056  140.4128  163.7023 C.ar    1  UNL1        0.0114
     19 C         139.1030  139.2116  164.5482 C.ar    1  UNL1        0.0577
     20 CL        138.2176  139.3455  165.7516 Cl      1  UNL1       -0.0822
     21 C         139.6859  137.8764  164.1908 C.ar    1  UNL1        0.0114
     22 C         140.5713  137.7426  162.9874 C.ar    1  UNL1        0.0024
     23 C         144.5303  141.2815  161.7484 C.ar    1  UNL1        0.1562
     24 C         145.3279  141.9297  162.8410 C.ar    1  UNL1        0.0385
     25 C         145.5839  141.1918  164.1215 C.ar    1  UNL1        0.0032
     26 C         145.0423  139.8056  164.3095 C.ar    1  UNL1        0.0017
     27 C         144.2447  139.1575  163.2170 C.ar    1  UNL1        0.0222
     28 C         143.9887  139.8954  161.9365 C.ar    1  UNL1        0.1166
     29 C         143.3362  143.1899  160.4513 C.3     1  UNL1        0.2525
     30 O         144.2743  142.0195  160.4678 O.3     1  UNL1       -0.4699
@<TRIPOS>BOND
     1    29    30    1
     2    30    23    1
     3    23    24   ar
     4    24    25   ar
     5    25    26   ar
     6    26    27   ar
     7    27    28   ar
     8    28     1    1
     9     1     2   ar
    10     2     3   ar
    11     3     6    1
    12     6     7    1
    13     7     8    1
    14     8     9    1
    15     8    10    1
    16     8    11    1
    17    11    12    1
    18    12    13    1
    19    12    14    1
    20    12    15    1
    21     3     4   ar
    22     4     5   ar
    23     5    16    1
    24    16    17   ar
    25    17    18   ar
    26    18    19   ar
    27    19    20    1
    28    19    21   ar
    29    21    22   ar
    30    28    23   ar
    31     5     1   ar
    32    22    16   ar
    33    15     6    1
@<TRIPOS>MOLECULE
*****
 30 33 0 0 0
SMALL
GASTEIGER

@<TRIPOS>ATOM
      1 N         138.3943  142.2720  160.5604 N.ar    1  UNL1       -0.2270
      2 N         137.8017  142.8803  159.3239 N.ar    1  UNL1       -0.1694
      3 C         137.7202  141.8114  158.2748 C.ar    1  UNL1        0.0802
      4 C         138.2625  140.5424  158.8628 C.ar    1  UNL1        0.0356
      5 C         138.6791  140.8271  160.2754 C.ar    1  UNL1        0.0841
      6 C         137.1896  141.9815  156.8821 C.3     1  UNL1        0.0467
      7 C         136.4306  140.8657  156.2271 C.3     1  UNL1        0.0333
      8 C         135.9001  141.0357  154.8345 C.3     1  UNL1        0.0931
      9 C         135.2065  140.7214  153.5422 C.3     1  UNL1        0.0296
     10 C         135.4308  139.6407  155.1234 C.3     1  UNL1        0.0296
     11 O         136.1285  142.3217  154.0968 O.3     1  UNL1       -0.3633
     12 C         136.8875  143.4375  154.7516 C.3     1  UNL1        0.0931
     13 C         137.5411  144.7735  154.9464 C.3     1  UNL1        0.0296
     14 C         136.5839  144.0715  153.4266 C.3     1  UNL1        0.0296
     15 C         137.4181  143.2674  156.1443 C.3     1  UNL1        0.0333
     16 C         139.2757  139.8402  161.2346 C.ar    1  UNL1        0.0178
     17 C         138.4141  138.7782  161.8507 C.ar    1  UNL1        0.0024
     18 C         139.0108  137.7913  162.8099 C.ar    1  UNL1        0.0114
     19 C         140.4691  137.8664  163.1529 C.ar    1  UNL1        0.0577
     20 CL        141.0658  136.8795  164.1121 Cl      1  UNL1       -0.0822
     21 C         141.3308  138.9285  162.5368 C.ar    1  UNL1        0.0114
     22 C         140.7341  139.9153  161.5776 C.ar    1  UNL1        0.0024
     23 C         139.8770  143.8421  162.0049 C.ar    1  UNL1        0.1562
     24 C         140.1389  144.5537  163.2990 C.ar    1  UNL1        0.0385
     25 C         139.1799  144.4069  164.4430 C.ar    1  UNL1        0.0032
     26 C         137.9590  143.5485  164.2928 C.ar    1  UNL1        0.0017
     27 C         137.6971  142.8369  162.9986 C.ar    1  UNL1        0.0222
     28 C         138.6561  142.9837  161.8546 C.ar    1  UNL1        0.1166
     29 C         140.7483  145.1829  159.9571 C.3     1  UNL1        0.2525
     30 O         140.8360  143.9889  160.8608 O.3     1  UNL1       -0.4699
@<TRIPOS>BOND
     1    29    30    1
     2    30    23    1
     3    23    24   ar
     4    24    25   ar
     5    25    26   ar
     6    26    27   ar
     7    27    28   ar
     8    28     1    1
     9     1     2   ar
    10     2     3   ar
    11     3     6    1
    12     6     7    1
    13     7     8    1
    14     8     9    1
    15     8    10    1
    16     8    11    1
    17    11    12    1
    18    12    13    1
    19    12    14    1
    20    12    15    1
    21     3     4   ar
    22     4     5   ar
    23     5    16    1
    24    16    17   ar
    25    17    18   ar
    26    18    19   ar
    27    19    20    1
    28    19    21   ar
    29    21    22   ar
    30    28    23   ar
    31     5     1   ar
    32    22    16   ar
    33    15     6    1
@<TRIPOS>MOLECULE
*****
 30 33 0 0 0
SMALL
GASTEIGER

@<TRIPOS>ATOM
      1 N         141.1057  141.8618  162.5820 N.ar    1  UNL1       -0.2270
      2 N         141.3074  141.7489  161.0999 N.ar    1  UNL1       -0.1694
      3 C         142.5025  140.8747  160.8600 C.ar    1  UNL1        0.0802
      4 C         143.0395  140.4474  162.1938 C.ar    1  UNL1        0.0356
      5 C         142.1763  141.0575  163.2581 C.ar    1  UNL1        0.0841
      6 C         143.0623  140.4946  159.5213 C.3     1  UNL1        0.0467
      7 C         144.0855  141.3698  158.8603 C.3     1  UNL1        0.0333
      8 C         144.6454  140.9898  157.5217 C.3     1  UNL1        0.0931
      9 C         145.4650  141.0532  156.2669 C.3     1  UNL1        0.0296
     10 C         145.3934  142.2672  157.7635 C.3     1  UNL1        0.0296
     11 O         144.1819  139.7343  156.8440 O.3     1  UNL1       -0.3633
     12 C         143.1588  138.8590  157.5049 C.3     1  UNL1        0.0931
     13 C         142.2163  137.7136  157.7280 C.3     1  UNL1        0.0296
     14 C         143.3913  138.0811  156.2437 C.3     1  UNL1        0.0296
     15 C         142.5989  139.2392  158.8436 C.3     1  UNL1        0.0333
     16 C         142.3526  140.8923  164.7385 C.ar    1  UNL1        0.0178
     17 C         142.7695  142.0623  165.5794 C.ar    1  UNL1        0.0024
     18 C         142.9458  141.8971  167.0598 C.ar    1  UNL1        0.0114
     19 C         142.7052  140.5618  167.6993 C.ar    1  UNL1        0.0577
     20 CL        142.8815  140.3965  169.1797 Cl      1  UNL1       -0.0822
     21 C         142.2883  139.3916  166.8584 C.ar    1  UNL1        0.0114
     22 C         142.1120  139.5570  165.3780 C.ar    1  UNL1        0.0024
     23 C         140.1227  144.1357  163.3652 C.ar    1  UNL1        0.1562
     24 C         139.0406  144.9160  164.0508 C.ar    1  UNL1        0.0385
     25 C         137.8594  144.2028  164.6389 C.ar    1  UNL1        0.0032
     26 C         137.7602  142.7093  164.5414 C.ar    1  UNL1        0.0017
     27 C         138.8423  141.9290  163.8558 C.ar    1  UNL1        0.0222
     28 C         140.0236  142.6422  163.2676 C.ar    1  UNL1        0.1166
     29 C         142.4967  145.1569  163.6330 C.3     1  UNL1        0.2525
     30 O         141.3041  144.8489  162.7770 O.3     1  UNL1       -0.4699
@<TRIPOS>BOND
     1    29    30    1
     2    30    23    1
     3    23    24   ar
     4    24    25   ar
     5    25    26   ar
     6    26    27   ar
     7    27    28   ar
     8    28     1    1
     9     1     2   ar
    10     2     3   ar
    11     3     6    1
    12     6     7    1
    13     7     8    1
    14     8     9    1
    15     8    10    1
    16     8    11    1
    17    11    12    1
    18    12    13    1
    19    12    14    1
    20    12    15    1
    21     3     4   ar
    22     4     5   ar
    23     5    16    1
    24    16    17   ar
    25    17    18   ar
    26    18    19   ar
    27    19    20    1
    28    19    21   ar
    29    21    22   ar
    30    28    23   ar
    31     5     1   ar
    32    22    16   ar
    33    15     6    1
@<TRIPOS>MOLECULE
*****
 30 33 0 0 0
SMALL
GASTEIGER

@<TRIPOS>ATOM
      1 N         141.0792  141.9417  162.8050 N.ar    1  UNL1       -0.2270
      2 N         141.2617  141.8139  161.3217 N.ar    1  UNL1       -0.1694
      3 C         142.4601  140.9462  161.0752 C.ar    1  UNL1        0.0802
      4 C         143.0183  140.5377  162.4062 C.ar    1  UNL1        0.0356
      5 C         142.1649  141.1530  163.4753 C.ar    1  UNL1        0.0841
      6 C         143.0048  140.5556  159.7332 C.3     1  UNL1        0.0467
      7 C         142.5372  139.2926  159.0728 C.3     1  UNL1        0.0333
      8 C         143.0817  138.9019  157.7309 C.3     1  UNL1        0.0931
      9 C         143.3014  138.1132  156.4740 C.3     1  UNL1        0.0296
     10 C         142.1458  137.7556  157.9759 C.3     1  UNL1        0.0296
     11 O         144.0940  139.7743  157.0494 O.3     1  UNL1       -0.3633
     12 C         144.5616  141.0372  157.7098 C.3     1  UNL1        0.0931
     13 C         145.3085  142.3192  157.9309 C.3     1  UNL1        0.0296
     14 C         145.3656  141.0917  156.4447 C.3     1  UNL1        0.0296
     15 C         144.0170  141.4279  159.0518 C.3     1  UNL1        0.0333
     16 C         142.3624  141.0054  164.9549 C.ar    1  UNL1        0.0178
     17 C         142.0960  139.6873  165.6194 C.ar    1  UNL1        0.0024
     18 C         142.2935  139.5398  167.0990 C.ar    1  UNL1        0.0114
     19 C         142.7574  140.7104  167.9141 C.ar    1  UNL1        0.0577
     20 CL        142.9550  140.5628  169.3937 Cl      1  UNL1       -0.0822
     21 C         143.0238  142.0286  167.2497 C.ar    1  UNL1        0.0114
     22 C         142.8263  142.1760  165.7701 C.ar    1  UNL1        0.0024
     23 C         138.6419  142.1149  163.6882 C.ar    1  UNL1        0.1562
     24 C         137.5632  142.8945  164.3799 C.ar    1  UNL1        0.0385
     25 C         137.8429  144.2806  164.8801 C.ar    1  UNL1        0.0032
     26 C         139.2013  144.8872  164.6887 C.ar    1  UNL1        0.0017
     27 C         140.2801  144.1076  163.9970 C.ar    1  UNL1        0.0222
     28 C         140.0004  142.7214  163.4968 C.ar    1  UNL1        0.1166
     29 C         137.7520  140.5295  161.8322 C.3     1  UNL1        0.2525
     30 O         138.3622  140.7286  163.1879 O.3     1  UNL1       -0.4699
@<TRIPOS>BOND
     1    29    30    1
     2    30    23    1
     3    23    24   ar
     4    24    25   ar
     5    25    26   ar
     6    26    27   ar
     7    27    28   ar
     8    28     1    1
     9     1     2   ar
    10     2     3   ar
    11     3     6    1
    12     6     7    1
    13     7     8    1
    14     8     9    1
    15     8    10    1
    16     8    11    1
    17    11    12    1
    18    12    13    1
    19    12    14    1
    20    12    15    1
    21     3     4   ar
    22     4     5   ar
    23     5    16    1
    24    16    17   ar
    25    17    18   ar
    26    18    19   ar
    27    19    20    1
    28    19    21   ar
    29    21    22   ar
    30    28    23   ar
    31     5     1   ar
    32    22    16   ar
    33    15     6    1
