@<TRIPOS>MOLECULE
*****
 26 27 0 0 0
SMALL
GASTEIGER

@<TRIPOS>ATOM
      1 C         141.9034  141.1840  165.6076 C.3     1  UNL1        0.0758
      2 C         141.9092  141.7918  166.9790 C.ar    1  UNL1       -0.0156
      3 C         143.1932  141.8972  167.7472 C.ar    1  UNL1       -0.0039
      4 C         143.1989  142.5050  169.1185 C.ar    1  UNL1       -0.0003
      5 C         141.9207  143.0074  169.7216 C.ar    1  UNL1       -0.0000
      6 C         140.6367  142.9019  168.9534 C.ar    1  UNL1       -0.0003
      7 C         140.6309  142.2941  167.5821 C.ar    1  UNL1       -0.0039
      8 C         142.1280  142.5395  165.0060 C.ar    1  UNL1       -0.0156
      9 C         140.9836  143.2828  164.3833 C.ar    1  UNL1       -0.0039
     10 C         141.2083  144.6384  163.7816 C.ar    1  UNL1       -0.0003
     11 C         142.5775  145.2506  163.8026 C.ar    1  UNL1       -0.0000
     12 C         143.7220  144.5073  164.4252 C.ar    1  UNL1       -0.0003
     13 C         143.4973  143.1518  165.0269 C.ar    1  UNL1       -0.0039
     14 C         141.6787  139.8285  166.2093 C.3     1  UNL1        0.1761
     15 C         143.5789  138.1469  166.7676 C.3     1  UNL1        0.0038
     16 C         142.6712  139.2664  167.1835 C.3     1  UNL1        0.0443
     17 O         140.4614  139.0349  165.8368 O.3     1  UNL1       -0.4516
     18 C         139.1044  139.4865  166.2891 C.2     1  UNL1        0.3175
     19 C         138.2095  140.2339  165.3452 C.3     1  UNL1        0.1212
     20 O         138.6422  139.1908  167.6851 O.2     1  UNL1       -0.2501
     21 C         141.8975  140.5762  164.2363 C.3     1  UNL1        0.0276
     22 C         143.1121  139.8563  163.7298 C.3     1  UNL1        0.0584
     23 C         144.5890  140.0695  163.8825 C.3     1  UNL1        0.0174
     24 N         142.9571  138.6376  162.8691 N.3     1  UNL1       -0.2716
     25 C         141.7751  137.7332  163.0555 C.3     1  UNL1        0.0896
     26 C         143.9841  138.3234  161.8220 C.3     1  UNL1        0.0896
@<TRIPOS>BOND
     1    15    16    1
     2    14    16    1
     3    14    17    1
     4    17    18    1
     5    18    19    1
     6    18    20    2
     7    14     1    1
     8     1    21    1
     9    21    22    1
    10    22    23    1
    11    22    24    1
    12    24    25    1
    13    24    26    1
    14     1     2    1
    15     2     3   ar
    16     3     4   ar
    17     4     5   ar
    18     5     6   ar
    19     6     7   ar
    20     1     8    1
    21     8     9   ar
    22     9    10   ar
    23    10    11   ar
    24    11    12   ar
    25    12    13   ar
    26     7     2   ar
    27    13     8   ar
@<TRIPOS>MOLECULE
*****
 26 27 0 0 0
SMALL
GASTEIGER

@<TRIPOS>ATOM
      1 C         140.9996  141.4529  165.6087 C.3     1  UNL1        0.0758
      2 C         140.0039  140.3655  165.8853 C.ar    1  UNL1       -0.0156
      3 C         139.7332  139.3152  164.8493 C.ar    1  UNL1       -0.0039
      4 C         138.7376  138.2280  165.1259 C.ar    1  UNL1       -0.0003
      5 C         138.0127  138.1910  166.4387 C.ar    1  UNL1       -0.0000
      6 C         138.2835  139.2413  167.4747 C.ar    1  UNL1       -0.0003
      7 C         139.2791  140.3286  167.1981 C.ar    1  UNL1       -0.0039
      8 C         139.9027  142.3184  165.0631 C.ar    1  UNL1       -0.0156
      9 C         139.5829  143.6278  165.7212 C.ar    1  UNL1       -0.0039
     10 C         138.4860  144.4933  165.1754 C.ar    1  UNL1       -0.0003
     11 C         137.7089  144.0494  163.9717 C.ar    1  UNL1       -0.0000
     12 C         138.0287  142.7399  163.3136 C.ar    1  UNL1       -0.0003
     13 C         139.1256  141.8744  163.8593 C.ar    1  UNL1       -0.0039
     14 C         142.0964  140.5874  166.1544 C.3     1  UNL1        0.1761
     15 C         142.5804  140.1192  168.6637 C.3     1  UNL1        0.0038
     16 C         142.7780  140.9603  167.4375 C.3     1  UNL1        0.0443
     17 O         142.5117  139.3489  165.4169 O.3     1  UNL1       -0.4516
     18 C         143.9290  138.8651  165.5020 C.2     1  UNL1        0.3175
     19 C         144.9478  139.3501  164.5136 C.3     1  UNL1        0.1212
     20 O         144.3275  137.8962  166.5756 O.2     1  UNL1       -0.2501
     21 C         141.9951  142.5402  165.3321 C.3     1  UNL1        0.0276
     22 C         142.4630  142.7895  163.9289 C.3     1  UNL1        0.0584
     23 C         142.9328  141.9028  162.8141 C.3     1  UNL1        0.0174
     24 N         142.5224  144.1904  163.3959 N.3     1  UNL1       -0.2716
     25 C         141.3798  144.7360  162.5918 C.3     1  UNL1        0.0896
     26 C         143.7246  145.0456  163.6670 C.3     1  UNL1        0.0896
@<TRIPOS>BOND
     1    15    16    1
     2    14    16    1
     3    14    17    1
     4    17    18    1
     5    18    19    1
     6    18    20    2
     7    14     1    1
     8     1    21    1
     9    21    22    1
    10    22    23    1
    11    22    24    1
    12    24    25    1
    13    24    26    1
    14     1     2    1
    15     2     3   ar
    16     3     4   ar
    17     4     5   ar
    18     5     6   ar
    19     6     7   ar
    20     1     8    1
    21     8     9   ar
    22     9    10   ar
    23    10    11   ar
    24    11    12   ar
    25    12    13   ar
    26     7     2   ar
    27    13     8   ar
@<TRIPOS>MOLECULE
*****
 26 27 0 0 0
SMALL
GASTEIGER

@<TRIPOS>ATOM
      1 C         140.7098  142.0274  165.3069 C.3     1  UNL1        0.0758
      2 C         141.6662  143.0573  164.7826 C.ar    1  UNL1       -0.0156
      3 C         143.1294  142.7417  164.6859 C.ar    1  UNL1       -0.0039
      4 C         144.0857  143.7715  164.1617 C.ar    1  UNL1       -0.0003
      5 C         143.5788  145.1170  163.7342 C.ar    1  UNL1       -0.0000
      6 C         142.1156  145.4326  163.8310 C.ar    1  UNL1       -0.0003
      7 C         141.1593  144.4028  164.3552 C.ar    1  UNL1       -0.0039
      8 C         141.1783  142.3040  166.7047 C.ar    1  UNL1       -0.0156
      9 C         140.2625  142.9780  167.6831 C.ar    1  UNL1       -0.0039
     10 C         140.7311  143.2546  169.0810 C.ar    1  UNL1       -0.0003
     11 C         142.1152  142.8572  169.5005 C.ar    1  UNL1       -0.0000
     12 C         143.0310  142.1832  168.5221 C.ar    1  UNL1       -0.0003
     13 C         142.5625  141.9066  167.1243 C.ar    1  UNL1       -0.0039
     14 C         140.2414  141.7508  163.9091 C.3     1  UNL1        0.1761
     15 C         141.2965  140.0920  162.2105 C.3     1  UNL1        0.0038
     16 C         141.2390  141.4579  162.8279 C.3     1  UNL1        0.0443
     17 O         138.7752  141.7671  163.5923 O.3     1  UNL1       -0.4516
     18 C         138.0975  143.0592  163.2441 C.2     1  UNL1        0.3175
     19 C         137.6613  143.9945  164.3327 C.3     1  UNL1        0.1212
     20 O         137.8559  143.4159  161.8073 O.2     1  UNL1       -0.2501
     21 C         139.7535  140.9976  165.8312 C.3     1  UNL1        0.0276
     22 C         140.0731  139.5385  165.6938 C.3     1  UNL1        0.0584
     23 C         141.3446  138.7433  165.7200 C.3     1  UNL1        0.0174
     24 N         138.9691  138.5459  165.4785 N.3     1  UNL1       -0.2716
     25 C         138.9120  137.7516  164.2074 C.3     1  UNL1        0.0896
     26 C         137.9224  138.3478  166.5345 C.3     1  UNL1        0.0896
@<TRIPOS>BOND
     1    15    16    1
     2    14    16    1
     3    14    17    1
     4    17    18    1
     5    18    19    1
     6    18    20    2
     7    14     1    1
     8     1    21    1
     9    21    22    1
    10    22    23    1
    11    22    24    1
    12    24    25    1
    13    24    26    1
    14     1     2    1
    15     2     3   ar
    16     3     4   ar
    17     4     5   ar
    18     5     6   ar
    19     6     7   ar
    20     1     8    1
    21     8     9   ar
    22     9    10   ar
    23    10    11   ar
    24    11    12   ar
    25    12    13   ar
    26     7     2   ar
    27    13     8   ar
@<TRIPOS>MOLECULE
*****
 26 27 0 0 0
SMALL
GASTEIGER

@<TRIPOS>ATOM
      1 C         140.7333  140.7401  164.6691 C.3     1  UNL1        0.0758
      2 C         139.8926  140.2290  165.8014 C.ar    1  UNL1       -0.0156
      3 C         140.2418  140.5868  167.2156 C.ar    1  UNL1       -0.0039
      4 C         139.4011  140.0757  168.3479 C.ar    1  UNL1       -0.0003
      5 C         138.2114  139.2068  168.0660 C.ar    1  UNL1       -0.0000
      6 C         137.8623  138.8490  166.6518 C.ar    1  UNL1       -0.0003
      7 C         138.7029  139.3600  165.5195 C.ar    1  UNL1       -0.0039
      8 C         139.8320  141.9319  164.5380 C.ar    1  UNL1       -0.0156
      9 C         138.8428  142.0040  163.4127 C.ar    1  UNL1       -0.0039
     10 C         137.9415  143.1959  163.2817 C.ar    1  UNL1       -0.0003
     11 C         138.0295  144.3156  164.2758 C.ar    1  UNL1       -0.0000
     12 C         139.0187  144.2435  165.4011 C.ar    1  UNL1       -0.0003
     13 C         139.9200  143.0517  165.5322 C.ar    1  UNL1       -0.0039
     14 C         141.6345  139.5482  164.8001 C.3     1  UNL1        0.1761
     15 C         141.1708  137.1037  164.0522 C.3     1  UNL1        0.0038
     16 C         141.6413  138.4923  163.7348 C.3     1  UNL1        0.0443
     17 O         142.5291  139.4123  165.9966 O.3     1  UNL1       -0.4516
     18 C         143.8686  138.7511  165.8603 C.2     1  UNL1        0.3175
     19 C         144.8009  139.1651  164.7606 C.3     1  UNL1        0.1212
     20 O         144.2757  137.6759  166.8237 O.2     1  UNL1       -0.2501
     21 C         141.5739  141.2512  163.5367 C.3     1  UNL1        0.0276
     22 C         142.8108  142.0502  163.8221 C.3     1  UNL1        0.0584
     23 C         143.3935  142.6615  165.0617 C.3     1  UNL1        0.0174
     24 N         143.7624  142.3819  162.7110 N.3     1  UNL1       -0.2716
     25 C         144.2487  141.3006  161.7921 C.3     1  UNL1        0.0896
     26 C         144.2276  143.7949  162.5187 C.3     1  UNL1        0.0896
@<TRIPOS>BOND
     1    15    16    1
     2    14    16    1
     3    14    17    1
     4    17    18    1
     5    18    19    1
     6    18    20    2
     7    14     1    1
     8     1    21    1
     9    21    22    1
    10    22    23    1
    11    22    24    1
    12    24    25    1
    13    24    26    1
    14     1     2    1
    15     2     3   ar
    16     3     4   ar
    17     4     5   ar
    18     5     6   ar
    19     6     7   ar
    20     1     8    1
    21     8     9   ar
    22     9    10   ar
    23    10    11   ar
    24    11    12   ar
    25    12    13   ar
    26     7     2   ar
    27    13     8   ar
@<TRIPOS>MOLECULE
*****
 26 27 0 0 0
SMALL
GASTEIGER

@<TRIPOS>ATOM
      1 C         141.0145  141.2459  166.1901 C.3     1  UNL1        0.0758
      2 C         140.4310  141.3978  167.5636 C.ar    1  UNL1       -0.0156
      3 C         139.6706  140.2641  168.1850 C.ar    1  UNL1       -0.0039
      4 C         139.0871  140.4161  169.5585 C.ar    1  UNL1       -0.0003
      5 C         139.2640  141.7018  170.3105 C.ar    1  UNL1       -0.0000
      6 C         140.0245  142.8356  169.6890 C.ar    1  UNL1       -0.0003
      7 C         140.6079  142.6836  168.3156 C.ar    1  UNL1       -0.0039
      8 C         139.9584  142.1583  165.6405 C.ar    1  UNL1       -0.0156
      9 C         140.1369  143.6455  165.7195 C.ar    1  UNL1       -0.0039
     10 C         139.0806  144.5579  165.1699 C.ar    1  UNL1       -0.0003
     11 C         137.8460  143.9830  164.5413 C.ar    1  UNL1       -0.0000
     12 C         137.6676  142.4957  164.4622 C.ar    1  UNL1       -0.0003
     13 C         138.7237  141.5834  165.0118 C.ar    1  UNL1       -0.0039
     14 C         142.0707  140.3335  166.7397 C.3     1  UNL1        0.1761
     15 C         143.5706  138.3507  165.9854 C.3     1  UNL1        0.0038
     16 C         142.2082  138.9384  166.2062 C.3     1  UNL1        0.0443
     17 O         142.9894  140.8163  167.8228 O.3     1  UNL1       -0.4516
     18 C         142.9663  140.1624  169.1725 C.2     1  UNL1        0.3175
     19 C         143.0519  141.0006  170.4136 C.3     1  UNL1        0.1212
     20 O         142.8577  138.6703  169.2813 O.2     1  UNL1       -0.2501
     21 C         141.5980  141.0940  164.8166 C.3     1  UNL1        0.0276
     22 C         142.9111  141.7383  164.4841 C.3     1  UNL1        0.0584
     23 C         143.5554  143.0416  164.8532 C.3     1  UNL1        0.0174
     24 N         143.8903  141.0302  163.5953 N.3     1  UNL1       -0.2716
     25 C         143.3980  140.0798  162.5444 C.3     1  UNL1        0.0896
     26 C         145.3616  141.2724  163.7574 C.3     1  UNL1        0.0896
@<TRIPOS>BOND
     1    15    16    1
     2    14    16    1
     3    14    17    1
     4    17    18    1
     5    18    19    1
     6    18    20    2
     7    14     1    1
     8     1    21    1
     9    21    22    1
    10    22    23    1
    11    22    24    1
    12    24    25    1
    13    24    26    1
    14     1     2    1
    15     2     3   ar
    16     3     4   ar
    17     4     5   ar
    18     5     6   ar
    19     6     7   ar
    20     1     8    1
    21     8     9   ar
    22     9    10   ar
    23    10    11   ar
    24    11    12   ar
    25    12    13   ar
    26     7     2   ar
    27    13     8   ar
@<TRIPOS>MOLECULE
*****
 26 27 0 0 0
SMALL
GASTEIGER

@<TRIPOS>ATOM
      1 C         141.2527  141.3400  165.6812 C.3     1  UNL1        0.0758
      2 C         141.4470  141.9347  167.0446 C.ar    1  UNL1       -0.0156
      3 C         142.7463  141.7415  167.7689 C.ar    1  UNL1       -0.0039
      4 C         142.9405  142.3363  169.1321 C.ar    1  UNL1       -0.0003
      5 C         141.8356  143.1242  169.7710 C.ar    1  UNL1       -0.0000
      6 C         140.5364  143.3175  169.0467 C.ar    1  UNL1       -0.0003
      7 C         140.3421  142.7227  167.6835 C.ar    1  UNL1       -0.0039
      8 C         141.6063  142.6569  165.0563 C.ar    1  UNL1       -0.0156
      9 C         143.0395  142.9857  164.7600 C.ar    1  UNL1       -0.0039
     10 C         143.3931  144.3028  164.1351 C.ar    1  UNL1       -0.0003
     11 C         142.3135  145.2909  163.8065 C.ar    1  UNL1       -0.0000
     12 C         140.8803  144.9621  164.1029 C.ar    1  UNL1       -0.0003
     13 C         140.5267  143.6452  164.7278 C.ar    1  UNL1       -0.0039
     14 C         140.8991  140.0230  166.3061 C.3     1  UNL1        0.1761
     15 C         138.5619  139.1228  166.9971 C.3     1  UNL1        0.0038
     16 C         139.7809  139.9419  167.3026 C.3     1  UNL1        0.0443
     17 O         141.6637  138.7871  165.9345 O.3     1  UNL1       -0.4516
     18 C         143.1240  138.6822  166.2606 C.2     1  UNL1        0.3175
     19 C         144.1506  138.9625  165.2034 C.3     1  UNL1        0.1212
     20 O         143.5578  138.2971  167.6439 O.2     1  UNL1       -0.2501
     21 C         141.0584  140.7453  164.3180 C.3     1  UNL1        0.0276
     22 C         139.6754  140.4455  163.8207 C.3     1  UNL1        0.0584
     23 C         138.3399  141.1063  163.9932 C.3     1  UNL1        0.0174
     24 N         139.4350  139.2491  162.9482 N.3     1  UNL1       -0.2716
     25 C         138.0792  139.0176  162.3498 C.3     1  UNL1        0.0896
     26 C         140.5504  138.2844  162.6743 C.3     1  UNL1        0.0896
@<TRIPOS>BOND
     1    15    16    1
     2    14    16    1
     3    14    17    1
     4    17    18    1
     5    18    19    1
     6    18    20    2
     7    14     1    1
     8     1    21    1
     9    21    22    1
    10    22    23    1
    11    22    24    1
    12    24    25    1
    13    24    26    1
    14     1     2    1
    15     2     3   ar
    16     3     4   ar
    17     4     5   ar
    18     5     6   ar
    19     6     7   ar
    20     1     8    1
    21     8     9   ar
    22     9    10   ar
    23    10    11   ar
    24    11    12   ar
    25    12    13   ar
    26     7     2   ar
    27    13     8   ar
@<TRIPOS>MOLECULE
*****
 26 27 0 0 0
SMALL
GASTEIGER

@<TRIPOS>ATOM
      1 C         141.0793  141.6579  165.2068 C.3     1  UNL1        0.0758
      2 C         139.9566  142.5722  164.8149 C.ar    1  UNL1       -0.0156
      3 C         139.1159  142.2555  163.6137 C.ar    1  UNL1       -0.0039
      4 C         137.9932  143.1698  163.2218 C.ar    1  UNL1       -0.0003
      5 C         137.7113  144.4009  164.0311 C.ar    1  UNL1       -0.0000
      6 C         138.5520  144.7176  165.2323 C.ar    1  UNL1       -0.0003
      7 C         139.6746  143.8033  165.6241 C.ar    1  UNL1       -0.0039
      8 C         140.1045  140.7647  165.9152 C.ar    1  UNL1       -0.0156
      9 C         140.0778  140.7234  167.4144 C.ar    1  UNL1       -0.0039
     10 C         139.1030  139.8302  168.1229 C.ar    1  UNL1       -0.0003
     11 C         138.1549  138.9783  167.3322 C.ar    1  UNL1       -0.0000
     12 C         138.1816  139.0195  165.8330 C.ar    1  UNL1       -0.0003
     13 C         139.1564  139.9127  165.1245 C.ar    1  UNL1       -0.0039
     14 C         142.0541  142.5510  164.4983 C.3     1  UNL1        0.1761
     15 C         144.6006  142.9522  164.8218 C.3     1  UNL1        0.0038
     16 C         143.1837  143.1806  165.2583 C.3     1  UNL1        0.0443
     17 O         141.8993  142.8147  163.0297 O.3     1  UNL1       -0.4516
     18 C         142.1779  144.1821  162.4798 C.2     1  UNL1        0.3175
     19 C         141.1226  145.2462  162.5453 C.3     1  UNL1        0.1212
     20 O         143.5117  144.4855  161.8642 O.2     1  UNL1       -0.2501
     21 C         142.2019  140.7435  165.5987 C.3     1  UNL1        0.0276
     22 C         142.4222  139.4626  164.8499 C.3     1  UNL1        0.0584
     23 C         142.3883  138.0128  165.2328 C.3     1  UNL1        0.0174
     24 N         142.7574  139.4964  163.3882 N.3     1  UNL1       -0.2716
     25 C         144.1742  139.7182  162.9485 C.3     1  UNL1        0.0896
     26 C         141.6757  139.3085  162.3661 C.3     1  UNL1        0.0896
@<TRIPOS>BOND
     1    15    16    1
     2    14    16    1
     3    14    17    1
     4    17    18    1
     5    18    19    1
     6    18    20    2
     7    14     1    1
     8     1    21    1
     9    21    22    1
    10    22    23    1
    11    22    24    1
    12    24    25    1
    13    24    26    1
    14     1     2    1
    15     2     3   ar
    16     3     4   ar
    17     4     5   ar
    18     5     6   ar
    19     6     7   ar
    20     1     8    1
    21     8     9   ar
    22     9    10   ar
    23    10    11   ar
    24    11    12   ar
    25    12    13   ar
    26     7     2   ar
    27    13     8   ar
@<TRIPOS>MOLECULE
*****
 26 27 0 0 0
SMALL
GASTEIGER

@<TRIPOS>ATOM
      1 C         141.0747  141.3793  165.4700 C.3     1  UNL1        0.0758
      2 C         140.0726  140.2959  165.7384 C.ar    1  UNL1       -0.0156
      3 C         139.3084  140.2841  167.0291 C.ar    1  UNL1       -0.0039
      4 C         138.3063  139.2007  167.2974 C.ar    1  UNL1       -0.0003
      5 C         138.0684  138.1291  166.2752 C.ar    1  UNL1       -0.0000
      6 C         138.8326  138.1409  164.9845 C.ar    1  UNL1       -0.0003
      7 C         139.8347  139.2243  164.7161 C.ar    1  UNL1       -0.0039
      8 C         139.9692  142.2929  165.0304 C.ar    1  UNL1       -0.0156
      9 C         139.1039  141.9162  163.8645 C.ar    1  UNL1       -0.0039
     10 C         137.9984  142.8298  163.4249 C.ar    1  UNL1       -0.0003
     11 C         137.7582  144.1200  164.1512 C.ar    1  UNL1       -0.0000
     12 C         138.6236  144.4967  165.3171 C.ar    1  UNL1       -0.0003
     13 C         139.7290  143.5832  165.7567 C.ar    1  UNL1       -0.0039
     14 C         142.1802  140.4657  165.9096 C.3     1  UNL1        0.1761
     15 C         144.1530  139.2554  164.7293 C.3     1  UNL1        0.0038
     16 C         142.6817  139.3963  164.9851 C.3     1  UNL1        0.0443
     17 O         142.7842  140.6216  167.2738 O.3     1  UNL1       -0.4516
     18 C         142.6945  139.5006  168.2663 C.2     1  UNL1        0.3175
     19 C         141.7799  139.6177  169.4494 C.3     1  UNL1        0.1212
     20 O         143.5194  138.2623  168.0757 O.2     1  UNL1       -0.2501
     21 C         142.0768  142.4627  165.2015 C.3     1  UNL1        0.0276
     22 C         142.4248  142.8293  163.7893 C.3     1  UNL1        0.0584
     23 C         142.7551  142.0380  162.5586 C.3     1  UNL1        0.0174
     24 N         142.4922  144.2719  163.3838 N.3     1  UNL1       -0.2716
     25 C         143.7087  145.0866  163.7100 C.3     1  UNL1        0.0896
     26 C         141.3432  144.8997  162.6520 C.3     1  UNL1        0.0896
@<TRIPOS>BOND
     1    15    16    1
     2    14    16    1
     3    14    17    1
     4    17    18    1
     5    18    19    1
     6    18    20    2
     7    14     1    1
     8     1    21    1
     9    21    22    1
    10    22    23    1
    11    22    24    1
    12    24    25    1
    13    24    26    1
    14     1     2    1
    15     2     3   ar
    16     3     4   ar
    17     4     5   ar
    18     5     6   ar
    19     6     7   ar
    20     1     8    1
    21     8     9   ar
    22     9    10   ar
    23    10    11   ar
    24    11    12   ar
    25    12    13   ar
    26     7     2   ar
    27    13     8   ar
@<TRIPOS>MOLECULE
*****
 26 27 0 0 0
SMALL
GASTEIGER

@<TRIPOS>ATOM
      1 C         141.0603  140.9924  164.5972 C.3     1  UNL1        0.0758
      2 C         140.1316  140.3860  165.6071 C.ar    1  UNL1       -0.0156
      3 C         138.9613  139.5654  165.1523 C.ar    1  UNL1       -0.0039
      4 C         138.0328  138.9591  166.1622 C.ar    1  UNL1       -0.0003
      5 C         138.2744  139.1734  167.6270 C.ar    1  UNL1       -0.0000
      6 C         139.4447  139.9941  168.0819 C.ar    1  UNL1       -0.0003
      7 C         140.3733  140.6004  167.0719 C.ar    1  UNL1       -0.0039
      8 C         140.1273  142.1560  164.4380 C.ar    1  UNL1       -0.0156
      9 C         139.9956  143.1677  165.5376 C.ar    1  UNL1       -0.0039
     10 C         139.0626  144.3314  165.3783 C.ar    1  UNL1       -0.0003
     11 C         138.2612  144.4834  164.1195 C.ar    1  UNL1       -0.0000
     12 C         138.3929  143.4717  163.0199 C.ar    1  UNL1       -0.0003
     13 C         139.3259  142.3081  163.1791 C.ar    1  UNL1       -0.0039
     14 C         141.9933  139.8288  164.7564 C.3     1  UNL1        0.1761
     15 C         143.6421  138.4570  166.2226 C.3     1  UNL1        0.0038
     16 C         142.6197  139.5466  166.0898 C.3     1  UNL1        0.0443
     17 O         142.2999  138.9471  163.5821 O.3     1  UNL1       -0.4516
     18 C         141.4136  137.7778  163.2705 C.2     1  UNL1        0.3175
     19 C         141.0120  136.8295  164.3611 C.3     1  UNL1        0.1212
     20 O         140.9289  137.5568  161.8682 O.2     1  UNL1       -0.2501
     21 C         141.9889  141.5988  163.5872 C.3     1  UNL1        0.0276
     22 C         143.2534  142.2680  164.0378 C.3     1  UNL1        0.0584
     23 C         143.6079  143.1552  165.1941 C.3     1  UNL1        0.0174
     24 N         144.5166  142.0942  163.2477 N.3     1  UNL1       -0.2716
     25 C         144.6342  142.6971  161.8793 C.3     1  UNL1        0.0896
     26 C         145.6621  141.3175  163.8261 C.3     1  UNL1        0.0896
@<TRIPOS>BOND
     1    15    16    1
     2    14    16    1
     3    14    17    1
     4    17    18    1
     5    18    19    1
     6    18    20    2
     7    14     1    1
     8     1    21    1
     9    21    22    1
    10    22    23    1
    11    22    24    1
    12    24    25    1
    13    24    26    1
    14     1     2    1
    15     2     3   ar
    16     3     4   ar
    17     4     5   ar
    18     5     6   ar
    19     6     7   ar
    20     1     8    1
    21     8     9   ar
    22     9    10   ar
    23    10    11   ar
    24    11    12   ar
    25    12    13   ar
    26     7     2   ar
    27    13     8   ar
