@<TRIPOS>MOLECULE
*****
 30 33 0 0 0
SMALL
GASTEIGER

@<TRIPOS>ATOM
      1 C         143.5239  143.2432  161.4284 C.3     1  UNL1        0.0719
      2 C         142.5691  143.9984  160.5518 C.ar    1  UNL1        0.1230
      3 N         142.7525  143.9920  159.0631 N.ar    1  UNL1       -0.2306
      4 C         141.7977  144.7471  158.1866 C.ar    1  UNL1        0.1051
      5 C         141.9811  144.7407  156.6979 C.ar    1  UNL1        0.0256
      6 C         141.0264  145.4958  155.8214 C.ar    1  UNL1        0.0597
      7 C         139.8882  146.2573  156.4336 C.ar    1  UNL1        0.2299
      8 N         139.7048  146.2636  157.9223 N.ar    1  UNL1       -0.2050
      9 C         140.6596  145.5085  158.7988 C.ar    1  UNL1        0.1579
     10 C         140.4762  145.5149  160.2876 C.ar    1  UNL1        0.2810
     11 O         139.3381  146.2763  160.8998 O.2     1  UNL1       -0.2652
     12 N         141.4310  144.7598  161.1641 N.ar    1  UNL1       -0.2827
     13 O         138.9334  147.0124  155.5571 O.3     1  UNL1       -0.4361
     14 C         139.1782  148.4611  155.2551 C.ar    1  UNL1        0.1473
     15 C         140.1436  148.8493  154.1747 C.ar    1  UNL1        0.0399
     16 C         140.3883  150.2982  153.8727 C.ar    1  UNL1        0.0328
     17 C         139.6676  151.3586  154.6511 C.ar    1  UNL1        0.1403
     18 F         139.9123  152.8074  154.3490 F       1  UNL1       -0.2042
     19 C         138.7021  150.9704  155.7314 C.ar    1  UNL1        0.0328
     20 C         138.4574  149.5217  156.0334 C.ar    1  UNL1        0.0399
     21 C         141.2476  144.7661  162.6529 C.3     1  UNL1        0.1115
     22 C         140.0771  144.0574  163.2674 C.3     1  UNL1        0.0388
     23 C         139.1199  144.8104  164.1432 C.3     1  UNL1        0.0048
     24 C         137.9494  144.1017  164.7577 C.3     1  UNL1        0.0174
     25 C         137.7361  142.6400  164.4964 C.3     1  UNL1        0.0720
     26 N         138.6932  141.8872  163.6206 N.3     1  UNL1       -0.2739
     27 C         139.8637  142.5959  163.0061 C.3     1  UNL1        0.0739
     28 C         138.4798  140.4257  163.3593 C.3     1  UNL1        0.0576
     29 C         137.8277  139.9790  162.0844 C.3     1  UNL1        0.0173
     30 C         138.9185  139.4106  164.3729 C.3     1  UNL1        0.0173
@<TRIPOS>BOND
     1     1     2    1
     2     2     3   ar
     3     3     4   ar
     4     4     5   ar
     5     5     6   ar
     6     6     7   ar
     7     7    13    1
     8    13    14    1
     9    14    15   ar
    10    15    16   ar
    11    16    17   ar
    12    17    18    1
    13    17    19   ar
    14    19    20   ar
    15     7     8   ar
    16     8     9   ar
    17     9    10   ar
    18    10    11    2
    19    10    12   ar
    20    12    21    1
    21    22    21    1
    22    22    23    1
    23    23    24    1
    24    24    25    1
    25    25    26    1
    26    26    28    1
    27    28    29    1
    28    28    30    1
    29    26    27    1
    30    12     2   ar
    31    27    22    1
    32     9     4   ar
    33    20    14   ar
@<TRIPOS>MOLECULE
*****
 30 33 0 0 0
SMALL
GASTEIGER

@<TRIPOS>ATOM
      1 C         138.7389  139.4982  159.5835 C.3     1  UNL1        0.0719
      2 C         138.6365  139.6707  161.0701 C.ar    1  UNL1        0.1230
      3 N         138.7616  138.4800  161.9737 N.ar    1  UNL1       -0.2306
      4 C         138.6592  138.6524  163.4603 C.ar    1  UNL1        0.1051
      5 C         138.7843  137.4617  164.3638 C.ar    1  UNL1        0.0256
      6 C         138.6818  137.6342  165.8503 C.ar    1  UNL1        0.0597
      7 C         138.4543  138.9975  166.4332 C.ar    1  UNL1        0.2299
      8 N         138.3292  140.1882  165.5297 N.ar    1  UNL1       -0.2050
      9 C         138.4316  140.0157  164.0432 C.ar    1  UNL1        0.1579
     10 C         138.3065  141.2064  163.1395 C.ar    1  UNL1        0.2810
     11 O         138.0789  142.5697  163.7224 O.2     1  UNL1       -0.2652
     12 N         138.4089  141.0339  161.6530 N.ar    1  UNL1       -0.2827
     13 O         138.3518  139.1700  167.9198 O.3     1  UNL1       -0.4361
     14 C         139.4020  139.9450  168.6590 C.ar    1  UNL1        0.1473
     15 C         140.8101  139.9806  168.1433 C.ar    1  UNL1        0.0399
     16 C         141.8602  140.7557  168.8826 C.ar    1  UNL1        0.0328
     17 C         141.5023  141.4951  170.1376 C.ar    1  UNL1        0.1403
     18 F         142.5524  142.2701  170.8768 F       1  UNL1       -0.2042
     19 C         140.0942  141.4595  170.6534 C.ar    1  UNL1        0.0328
     20 C         139.0441  140.6845  169.9141 C.ar    1  UNL1        0.0399
     21 C         138.2838  142.2247  160.7494 C.3     1  UNL1        0.1115
     22 C         139.4875  143.0679  160.4489 C.3     1  UNL1        0.0388
     23 C         139.6437  143.6969  159.0961 C.3     1  UNL1        0.0048
     24 C         140.8474  144.5401  158.7956 C.3     1  UNL1        0.0174
     25 C         141.8947  144.7542  159.8479 C.3     1  UNL1        0.0720
     26 N         141.7384  144.1252  161.2006 N.3     1  UNL1       -0.2739
     27 C         140.5348  143.2821  161.5011 C.3     1  UNL1        0.0739
     28 C         142.7857  144.3394  162.2528 C.3     1  UNL1        0.0576
     29 C         142.4885  145.2043  163.4418 C.3     1  UNL1        0.0173
     30 C         144.1304  143.6887  162.1161 C.3     1  UNL1        0.0173
@<TRIPOS>BOND
     1     1     2    1
     2     2     3   ar
     3     3     4   ar
     4     4     5   ar
     5     5     6   ar
     6     6     7   ar
     7     7    13    1
     8    13    14    1
     9    14    15   ar
    10    15    16   ar
    11    16    17   ar
    12    17    18    1
    13    17    19   ar
    14    19    20   ar
    15     7     8   ar
    16     8     9   ar
    17     9    10   ar
    18    10    11    2
    19    10    12   ar
    20    12    21    1
    21    22    21    1
    22    22    23    1
    23    23    24    1
    24    24    25    1
    25    25    26    1
    26    26    28    1
    27    28    29    1
    28    28    30    1
    29    26    27    1
    30    12     2   ar
    31    27    22    1
    32     9     4   ar
    33    20    14   ar
@<TRIPOS>MOLECULE
*****
 30 33 0 0 0
SMALL
GASTEIGER

@<TRIPOS>ATOM
      1 C         144.8617  140.3575  164.3093 C.3     1  UNL1        0.0719
      2 C         144.0754  139.7602  163.1802 C.ar    1  UNL1        0.1230
      3 N         144.3686  140.1645  161.7658 N.ar    1  UNL1       -0.2306
      4 C         143.5822  139.5672  160.6366 C.ar    1  UNL1        0.1051
      5 C         143.8754  139.9715  159.2222 C.ar    1  UNL1        0.0256
      6 C         143.0891  139.3742  158.0931 C.ar    1  UNL1        0.0597
      7 C         142.0096  138.3725  158.3784 C.ar    1  UNL1        0.2299
      8 N         141.7165  137.9682  159.7928 N.ar    1  UNL1       -0.2050
      9 C         142.5028  138.5655  160.9219 C.ar    1  UNL1        0.1579
     10 C         142.2096  138.1612  162.3364 C.ar    1  UNL1        0.2810
     11 O         141.1301  137.1595  162.6217 O.2     1  UNL1       -0.2652
     12 N         142.9959  138.7585  163.4655 N.ar    1  UNL1       -0.2827
     13 O         141.2233  137.7751  157.2493 O.3     1  UNL1       -0.4361
     14 C         141.7377  136.5587  156.5383 C.ar    1  UNL1        0.1473
     15 C         143.0106  135.9072  156.9915 C.ar    1  UNL1        0.0399
     16 C         143.5249  134.6906  156.2804 C.ar    1  UNL1        0.0328
     17 C         142.7665  134.1257  155.1162 C.ar    1  UNL1        0.1403
     18 F         143.2809  132.9092  154.4052 F       1  UNL1       -0.2042
     19 C         141.4936  134.7772  154.6630 C.ar    1  UNL1        0.0328
     20 C         140.9792  135.9936  155.3740 C.ar    1  UNL1        0.0399
     21 C         142.7027  138.3542  164.8799 C.3     1  UNL1        0.1115
     22 C         141.7107  139.1327  165.6922 C.3     1  UNL1        0.0388
     23 C         140.2456  138.8325  165.5755 C.3     1  UNL1        0.0048
     24 C         139.2535  139.6109  166.3878 C.3     1  UNL1        0.0174
     25 C         139.7265  140.6896  167.3167 C.3     1  UNL1        0.0720
     26 N         141.1915  140.9898  167.4333 N.3     1  UNL1       -0.2739
     27 C         142.1836  140.2113  166.6211 C.3     1  UNL1        0.0739
     28 C         141.6644  142.0684  168.3622 C.3     1  UNL1        0.0576
     29 C         140.6704  142.9688  169.0338 C.3     1  UNL1        0.0173
     30 C         143.1314  142.2467  168.6195 C.3     1  UNL1        0.0173
@<TRIPOS>BOND
     1     1     2    1
     2     2     3   ar
     3     3     4   ar
     4     4     5   ar
     5     5     6   ar
     6     6     7   ar
     7     7    13    1
     8    13    14    1
     9    14    15   ar
    10    15    16   ar
    11    16    17   ar
    12    17    18    1
    13    17    19   ar
    14    19    20   ar
    15     7     8   ar
    16     8     9   ar
    17     9    10   ar
    18    10    11    2
    19    10    12   ar
    20    12    21    1
    21    22    21    1
    22    22    23    1
    23    23    24    1
    24    24    25    1
    25    25    26    1
    26    26    28    1
    27    28    29    1
    28    28    30    1
    29    26    27    1
    30    12     2   ar
    31    27    22    1
    32     9     4   ar
    33    20    14   ar
@<TRIPOS>MOLECULE
*****
 30 33 0 0 0
SMALL
GASTEIGER

@<TRIPOS>ATOM
      1 C         144.5830  138.0123  155.3282 C.3     1  UNL1        0.0719
      2 C         143.3291  138.0582  156.1503 C.ar    1  UNL1        0.1230
      3 N         143.3329  138.7393  157.4867 N.ar    1  UNL1       -0.2306
      4 C         142.0790  138.7851  158.3087 C.ar    1  UNL1        0.1051
      5 C         142.0828  139.4662  159.6451 C.ar    1  UNL1        0.0256
      6 C         140.8289  139.5120  160.4671 C.ar    1  UNL1        0.0597
      7 C         139.5712  138.8767  159.9526 C.ar    1  UNL1        0.2299
      8 N         139.5674  138.1956  158.6162 N.ar    1  UNL1       -0.2050
      9 C         140.8213  138.1498  157.7943 C.ar    1  UNL1        0.1579
     10 C         140.8176  137.4687  156.4578 C.ar    1  UNL1        0.2810
     11 O         139.5599  136.8334  155.9433 O.2     1  UNL1       -0.2652
     12 N         142.0714  137.4229  155.6358 N.ar    1  UNL1       -0.2827
     13 O         138.3173  138.9225  160.7747 O.3     1  UNL1       -0.4361
     14 C         138.4023  138.9371  162.2721 C.ar    1  UNL1        0.1473
     15 C         138.8425  137.7078  163.0104 C.ar    1  UNL1        0.0399
     16 C         138.9275  137.7225  164.5080 C.ar    1  UNL1        0.0328
     17 C         138.5724  138.9664  165.2672 C.ar    1  UNL1        0.1403
     18 F         138.6574  138.9810  166.7647 F       1  UNL1       -0.2042
     19 C         138.1323  140.1957  164.5289 C.ar    1  UNL1        0.0328
     20 C         138.0472  140.1811  163.0314 C.ar    1  UNL1        0.0399
     21 C         142.0677  136.7417  154.2993 C.3     1  UNL1        0.1115
     22 C         142.3369  135.2690  154.2074 C.3     1  UNL1        0.0388
     23 C         141.7976  134.4786  153.0521 C.3     1  UNL1        0.0048
     24 C         142.0668  133.0059  152.9602 C.3     1  UNL1        0.0174
     25 C         142.8753  132.3234  154.0235 C.3     1  UNL1        0.0720
     26 N         143.4145  133.1137  155.1788 N.3     1  UNL1       -0.2739
     27 C         143.1453  134.5865  155.2707 C.3     1  UNL1        0.0739
     28 C         144.2229  132.4312  156.2421 C.3     1  UNL1        0.0576
     29 C         144.4289  133.0966  157.5706 C.3     1  UNL1        0.0173
     30 C         144.8254  131.0833  155.9769 C.3     1  UNL1        0.0173
@<TRIPOS>BOND
     1     1     2    1
     2     2     3   ar
     3     3     4   ar
     4     4     5   ar
     5     5     6   ar
     6     6     7   ar
     7     7    13    1
     8    13    14    1
     9    14    15   ar
    10    15    16   ar
    11    16    17   ar
    12    17    18    1
    13    17    19   ar
    14    19    20   ar
    15     7     8   ar
    16     8     9   ar
    17     9    10   ar
    18    10    11    2
    19    10    12   ar
    20    12    21    1
    21    22    21    1
    22    22    23    1
    23    23    24    1
    24    24    25    1
    25    25    26    1
    26    26    28    1
    27    28    29    1
    28    28    30    1
    29    26    27    1
    30    12     2   ar
    31    27    22    1
    32     9     4   ar
    33    20    14   ar
@<TRIPOS>MOLECULE
*****
 30 33 0 0 0
SMALL
GASTEIGER

@<TRIPOS>ATOM
      1 C         138.3252  144.4330  162.8396 C.3     1  UNL1        0.0719
      2 C         138.3671  143.2389  161.9326 C.ar    1  UNL1        0.1230
      3 N         138.8015  143.3959  160.5055 N.ar    1  UNL1       -0.2306
      4 C         138.8434  142.2019  159.5985 C.ar    1  UNL1        0.1051
      5 C         139.2778  142.3589  158.1715 C.ar    1  UNL1        0.0256
      6 C         139.3196  141.1649  157.2646 C.ar    1  UNL1        0.0597
      7 C         138.9270  139.8139  157.7847 C.ar    1  UNL1        0.2299
      8 N         138.4925  139.6568  159.2118 N.ar    1  UNL1       -0.2050
      9 C         138.4507  140.8508  160.1187 C.ar    1  UNL1        0.1579
     10 C         138.0163  140.6939  161.5458 C.ar    1  UNL1        0.2810
     11 O         137.6236  139.3428  162.0660 O.2     1  UNL1       -0.2652
     12 N         137.9744  141.8879  162.4528 N.ar    1  UNL1       -0.2827
     13 O         138.9688  138.6198  156.8777 O.3     1  UNL1       -0.4361
     14 C         140.2149  137.7898  156.7875 C.ar    1  UNL1        0.1473
     15 C         141.3797  138.0855  157.6853 C.ar    1  UNL1        0.0399
     16 C         142.6259  137.2554  157.5950 C.ar    1  UNL1        0.0328
     17 C         142.7073  136.1297  156.6070 C.ar    1  UNL1        0.1403
     18 F         143.9534  135.2997  156.5167 F       1  UNL1       -0.2042
     19 C         141.5426  135.8341  155.7092 C.ar    1  UNL1        0.0328
     20 C         140.2964  136.6641  155.7994 C.ar    1  UNL1        0.0399
     21 C         137.5400  141.7309  163.8799 C.3     1  UNL1        0.1115
     22 C         138.4953  141.1841  164.8989 C.3     1  UNL1        0.0388
     23 C         138.1675  139.9158  165.6297 C.3     1  UNL1        0.0048
     24 C         139.1229  139.3690  166.6487 C.3     1  UNL1        0.0174
     25 C         140.4060  140.0905  166.9368 C.3     1  UNL1        0.0720
     26 N         140.7338  141.3587  166.2060 N.3     1  UNL1       -0.2739
     27 C         139.7785  141.9055  165.1870 C.3     1  UNL1        0.0739
     28 C         142.0170  142.0801  166.4942 C.3     1  UNL1        0.0576
     29 C         142.5683  142.1018  167.8890 C.3     1  UNL1        0.0173
     30 C         142.7488  142.7799  165.3875 C.3     1  UNL1        0.0173
@<TRIPOS>BOND
     1     1     2    1
     2     2     3   ar
     3     3     4   ar
     4     4     5   ar
     5     5     6   ar
     6     6     7   ar
     7     7    13    1
     8    13    14    1
     9    14    15   ar
    10    15    16   ar
    11    16    17   ar
    12    17    18    1
    13    17    19   ar
    14    19    20   ar
    15     7     8   ar
    16     8     9   ar
    17     9    10   ar
    18    10    11    2
    19    10    12   ar
    20    12    21    1
    21    22    21    1
    22    22    23    1
    23    23    24    1
    24    24    25    1
    25    25    26    1
    26    26    28    1
    27    28    29    1
    28    28    30    1
    29    26    27    1
    30    12     2   ar
    31    27    22    1
    32     9     4   ar
    33    20    14   ar
@<TRIPOS>MOLECULE
*****
 30 33 0 0 0
SMALL
GASTEIGER

@<TRIPOS>ATOM
      1 C         139.1946  138.1073  160.5910 C.3     1  UNL1        0.0719
      2 C         139.6913  138.7206  161.8666 C.ar    1  UNL1        0.1230
      3 N         140.7409  138.0195  162.6770 N.ar    1  UNL1       -0.2306
      4 C         141.2376  138.6329  163.9526 C.ar    1  UNL1        0.1051
      5 C         142.2871  137.9317  164.7630 C.ar    1  UNL1        0.0256
      6 C         142.7838  138.5451  166.0386 C.ar    1  UNL1        0.0597
      7 C         142.2308  139.8596  166.5037 C.ar    1  UNL1        0.2299
      8 N         141.1812  140.5607  165.6933 N.ar    1  UNL1       -0.2050
      9 C         140.6846  139.9474  164.4178 C.ar    1  UNL1        0.1579
     10 C         139.6350  140.6485  163.6073 C.ar    1  UNL1        0.2810
     11 O         139.0820  141.9630  164.0725 O.2     1  UNL1       -0.2652
     12 N         139.1384  140.0351  162.3318 N.ar    1  UNL1       -0.2827
     13 O         142.7275  140.4729  167.7794 O.3     1  UNL1       -0.4361
     14 C         141.7826  141.2290  168.6657 C.ar    1  UNL1        0.1473
     15 C         142.0646  142.6603  169.0147 C.ar    1  UNL1        0.0399
     16 C         141.1197  143.4163  169.9011 C.ar    1  UNL1        0.0328
     17 C         139.8928  142.7410  170.4384 C.ar    1  UNL1        0.1403
     18 F         138.9480  143.4970  171.3247 F       1  UNL1       -0.2042
     19 C         139.6108  141.3097  170.0893 C.ar    1  UNL1        0.0328
     20 C         140.5557  140.5537  169.2030 C.ar    1  UNL1        0.0399
     21 C         138.0887  140.7362  161.5213 C.3     1  UNL1        0.1115
     22 C         138.4898  141.6128  160.3720 C.3     1  UNL1        0.0388
     23 C         138.1913  141.1877  158.9648 C.3     1  UNL1        0.0048
     24 C         138.5924  142.0643  157.8155 C.3     1  UNL1        0.0174
     25 C         139.2920  143.3659  158.0735 C.3     1  UNL1        0.0720
     26 N         139.5905  143.7909  159.4807 N.3     1  UNL1       -0.2739
     27 C         139.1894  142.9143  160.6300 C.3     1  UNL1        0.0739
     28 C         140.2900  145.0924  159.7387 C.3     1  UNL1        0.0576
     29 C         140.1514  145.7672  161.0711 C.3     1  UNL1        0.0173
     30 C         141.1282  145.7192  158.6641 C.3     1  UNL1        0.0173
@<TRIPOS>BOND
     1     1     2    1
     2     2     3   ar
     3     3     4   ar
     4     4     5   ar
     5     5     6   ar
     6     6     7   ar
     7     7    13    1
     8    13    14    1
     9    14    15   ar
    10    15    16   ar
    11    16    17   ar
    12    17    18    1
    13    17    19   ar
    14    19    20   ar
    15     7     8   ar
    16     8     9   ar
    17     9    10   ar
    18    10    11    2
    19    10    12   ar
    20    12    21    1
    21    22    21    1
    22    22    23    1
    23    23    24    1
    24    24    25    1
    25    25    26    1
    26    26    28    1
    27    28    29    1
    28    28    30    1
    29    26    27    1
    30    12     2   ar
    31    27    22    1
    32     9     4   ar
    33    20    14   ar
@<TRIPOS>MOLECULE
*****
 30 33 0 0 0
SMALL
GASTEIGER

@<TRIPOS>ATOM
      1 C         139.5561  138.6748  158.1044 C.3     1  UNL1        0.0719
      2 C         140.3467  138.6800  159.3792 C.ar    1  UNL1        0.1230
      3 N         139.7307  138.1643  160.6458 N.ar    1  UNL1       -0.2306
      4 C         140.5213  138.1695  161.9206 C.ar    1  UNL1        0.1051
      5 C         139.9054  137.6537  163.1873 C.ar    1  UNL1        0.0256
      6 C         140.6960  137.6590  164.4620 C.ar    1  UNL1        0.0597
      7 C         142.1026  138.1800  164.4700 C.ar    1  UNL1        0.2299
      8 N         142.7185  138.6958  163.2033 N.ar    1  UNL1       -0.2050
      9 C         141.9279  138.6906  161.9286 C.ar    1  UNL1        0.1579
     10 C         142.5439  139.2064  160.6619 C.ar    1  UNL1        0.2810
     11 O         143.9504  139.7274  160.6699 O.2     1  UNL1       -0.2652
     12 N         141.7533  139.2011  159.3872 N.ar    1  UNL1       -0.2827
     13 O         142.8932  138.1853  165.7448 O.3     1  UNL1       -0.4361
     14 C         142.8691  139.3906  166.6372 C.ar    1  UNL1        0.1473
     15 C         142.9634  140.7651  166.0440 C.ar    1  UNL1        0.0399
     16 C         142.9393  141.9704  166.9366 C.ar    1  UNL1        0.0328
     17 C         142.8210  141.8013  168.4223 C.ar    1  UNL1        0.1403
     18 F         142.7970  143.0066  169.3148 F       1  UNL1       -0.2042
     19 C         142.7268  140.4268  169.0155 C.ar    1  UNL1        0.0328
     20 C         142.7508  139.2215  168.1230 C.ar    1  UNL1        0.0399
     21 C         142.3692  139.7169  158.1204 C.3     1  UNL1        0.1115
     22 C         143.0584  138.7709  157.1822 C.3     1  UNL1        0.0388
     23 C         143.8856  139.3061  156.0511 C.3     1  UNL1        0.0048
     24 C         144.5748  138.3602  155.1130 C.3     1  UNL1        0.0174
     25 C         144.4367  136.8790  155.3059 C.3     1  UNL1        0.0720
     26 N         143.6095  136.3439  156.4370 N.3     1  UNL1       -0.2739
     27 C         142.9204  137.2898  157.3751 C.3     1  UNL1        0.0739
     28 C         143.4715  134.8628  156.6299 C.3     1  UNL1        0.0576
     29 C         143.2597  133.9685  155.4443 C.3     1  UNL1        0.0173
     30 C         143.5453  134.2758  158.0083 C.3     1  UNL1        0.0173
@<TRIPOS>BOND
     1     1     2    1
     2     2     3   ar
     3     3     4   ar
     4     4     5   ar
     5     5     6   ar
     6     6     7   ar
     7     7    13    1
     8    13    14    1
     9    14    15   ar
    10    15    16   ar
    11    16    17   ar
    12    17    18    1
    13    17    19   ar
    14    19    20   ar
    15     7     8   ar
    16     8     9   ar
    17     9    10   ar
    18    10    11    2
    19    10    12   ar
    20    12    21    1
    21    22    21    1
    22    22    23    1
    23    23    24    1
    24    24    25    1
    25    25    26    1
    26    26    28    1
    27    28    29    1
    28    28    30    1
    29    26    27    1
    30    12     2   ar
    31    27    22    1
    32     9     4   ar
    33    20    14   ar
@<TRIPOS>MOLECULE
*****
 30 33 0 0 0
SMALL
GASTEIGER

@<TRIPOS>ATOM
      1 C         137.9747  144.0211  162.8387 C.3     1  UNL1        0.0719
      2 C         138.0948  142.9186  161.8286 C.ar    1  UNL1        0.1230
      3 N         138.3326  143.2472  160.3845 N.ar    1  UNL1       -0.2306
      4 C         138.4527  142.1447  159.3744 C.ar    1  UNL1        0.1051
      5 C         138.6905  142.4732  157.9303 C.ar    1  UNL1        0.0256
      6 C         138.8105  141.3707  156.9203 C.ar    1  UNL1        0.0597
      7 C         138.6927  139.9398  157.3544 C.ar    1  UNL1        0.2299
      8 N         138.4548  139.6112  158.7985 N.ar    1  UNL1       -0.2050
      9 C         138.3348  140.7137  159.8085 C.ar    1  UNL1        0.1579
     10 C         138.0970  140.3852  161.2527 C.ar    1  UNL1        0.2810
     11 O         137.9791  138.9542  161.6868 O.2     1  UNL1       -0.2652
     12 N         137.9769  141.4877  162.2627 N.ar    1  UNL1       -0.2827
     13 O         138.8127  138.8373  156.3443 O.3     1  UNL1       -0.4361
     14 C         140.0153  137.9408  156.3519 C.ar    1  UNL1        0.1473
     15 C         140.0166  136.6807  155.5383 C.ar    1  UNL1        0.0399
     16 C         141.2193  135.7842  155.5459 C.ar    1  UNL1        0.0328
     17 C         142.4206  136.1479  156.3671 C.ar    1  UNL1        0.1403
     18 F         143.6232  135.2515  156.3747 F       1  UNL1       -0.2042
     19 C         142.4194  137.4081  157.1808 C.ar    1  UNL1        0.0328
     20 C         141.2168  138.3045  157.1732 C.ar    1  UNL1        0.0399
     21 C         137.7391  141.1592  163.7069 C.3     1  UNL1        0.1115
     22 C         138.9027  140.9545  164.6310 C.3     1  UNL1        0.0388
     23 C         139.1995  141.9655  165.6987 C.3     1  UNL1        0.0048
     24 C         140.3632  141.7608  166.6228 C.3     1  UNL1        0.0174
     25 C         141.2301  140.5451  166.4792 C.3     1  UNL1        0.0720
     26 N         140.9333  139.5341  165.4115 N.3     1  UNL1       -0.2739
     27 C         139.7696  139.7388  164.4874 C.3     1  UNL1        0.0739
     28 C         141.8002  138.3185  165.2680 C.3     1  UNL1        0.0576
     29 C         143.1828  138.3104  165.8496 C.3     1  UNL1        0.0173
     30 C         141.2845  137.1109  164.5428 C.3     1  UNL1        0.0173
@<TRIPOS>BOND
     1     1     2    1
     2     2     3   ar
     3     3     4   ar
     4     4     5   ar
     5     5     6   ar
     6     6     7   ar
     7     7    13    1
     8    13    14    1
     9    14    15   ar
    10    15    16   ar
    11    16    17   ar
    12    17    18    1
    13    17    19   ar
    14    19    20   ar
    15     7     8   ar
    16     8     9   ar
    17     9    10   ar
    18    10    11    2
    19    10    12   ar
    20    12    21    1
    21    22    21    1
    22    22    23    1
    23    23    24    1
    24    24    25    1
    25    25    26    1
    26    26    28    1
    27    28    29    1
    28    28    30    1
    29    26    27    1
    30    12     2   ar
    31    27    22    1
    32     9     4   ar
    33    20    14   ar
@<TRIPOS>MOLECULE
*****
 30 33 0 0 0
SMALL
GASTEIGER

@<TRIPOS>ATOM
      1 C         144.7858  142.3936  158.3736 C.3     1  UNL1        0.0719
      2 C         144.1688  141.0445  158.1516 C.ar    1  UNL1        0.1230
      3 N         144.5050  140.2597  156.9184 N.ar    1  UNL1       -0.2306
      4 C         143.8879  138.9106  156.6964 C.ar    1  UNL1        0.1051
      5 C         144.2241  138.1258  155.4632 C.ar    1  UNL1        0.0256
      6 C         143.6071  136.7767  155.2413 C.ar    1  UNL1        0.0597
      7 C         142.6538  136.2125  156.2527 C.ar    1  UNL1        0.2299
      8 N         142.3176  136.9973  157.4860 N.ar    1  UNL1       -0.2050
      9 C         142.9347  138.3463  157.7079 C.ar    1  UNL1        0.1579
     10 C         142.5985  139.1312  158.9412 C.ar    1  UNL1        0.2810
     11 O         141.6453  138.5669  159.9526 O.2     1  UNL1       -0.2652
     12 N         143.2155  140.4803  159.1631 N.ar    1  UNL1       -0.2827
     13 O         142.0368  134.8633  156.0308 O.3     1  UNL1       -0.4361
     14 C         142.7630  133.6255  156.4671 C.ar    1  UNL1        0.1473
     15 C         143.9914  133.7382  157.3205 C.ar    1  UNL1        0.0399
     16 C         144.7176  132.5003  157.7568 C.ar    1  UNL1        0.0328
     17 C         144.2155  131.1498  157.3396 C.ar    1  UNL1        0.1403
     18 F         144.9417  129.9120  157.7759 F       1  UNL1       -0.2042
     19 C         142.9871  131.0372  156.4861 C.ar    1  UNL1        0.0328
     20 C         142.2609  132.2750  156.0499 C.ar    1  UNL1        0.0399
     21 C         142.8793  141.2651  160.3964 C.3     1  UNL1        0.1115
     22 C         143.5617  140.9507  161.6947 C.3     1  UNL1        0.0388
     23 C         144.8462  141.6379  162.0525 C.3     1  UNL1        0.0048
     24 C         145.5285  141.3234  163.3508 C.3     1  UNL1        0.0174
     25 C         144.9264  140.3218  164.2912 C.3     1  UNL1        0.0720
     26 N         143.6420  139.6347  163.9333 N.3     1  UNL1       -0.2739
     27 C         142.9597  139.9491  162.6350 C.3     1  UNL1        0.0739
     28 C         143.0400  138.6331  164.8737 C.3     1  UNL1        0.0576
     29 C         141.7675  137.9293  164.5057 C.3     1  UNL1        0.0173
     30 C         143.7104  138.3353  166.1821 C.3     1  UNL1        0.0173
@<TRIPOS>BOND
     1     1     2    1
     2     2     3   ar
     3     3     4   ar
     4     4     5   ar
     5     5     6   ar
     6     6     7   ar
     7     7    13    1
     8    13    14    1
     9    14    15   ar
    10    15    16   ar
    11    16    17   ar
    12    17    18    1
    13    17    19   ar
    14    19    20   ar
    15     7     8   ar
    16     8     9   ar
    17     9    10   ar
    18    10    11    2
    19    10    12   ar
    20    12    21    1
    21    22    21    1
    22    22    23    1
    23    23    24    1
    24    24    25    1
    25    25    26    1
    26    26    28    1
    27    28    29    1
    28    28    30    1
    29    26    27    1
    30    12     2   ar
    31    27    22    1
    32     9     4   ar
    33    20    14   ar
