@<TRIPOS>MOLECULE
*****
 34 37 0 0 0
SMALL
GASTEIGER

@<TRIPOS>ATOM
      1 C         142.9044  139.1706  164.2918 C.ar    1  UNL1        0.0016
      2 C         144.0959  138.5944  164.9977 C.ar    1  UNL1        0.0016
      3 C         144.1153  138.5170  166.4955 C.ar    1  UNL1        0.0191
      4 C         142.9431  139.0159  167.2875 C.ar    1  UNL1        0.0825
      5 N         142.9625  138.9385  168.7854 N.ar    1  UNL1       -0.2436
      6 C         141.7904  139.4373  169.5774 C.ar    1  UNL1        0.1045
      7 C         140.5988  140.0135  168.8715 C.ar    1  UNL1        0.0853
      8 C         140.5795  140.0909  167.3737 C.ar    1  UNL1        0.0519
      9 C         141.7516  139.5920  166.5817 C.ar    1  UNL1        0.0309
     10 C         141.7322  139.6694  165.0838 C.ar    1  UNL1        0.0028
     11 C         142.8462  139.4027  159.7981 C.ar    1  UNL1        0.0888
     12 C         141.7366  140.0216  160.5955 C.ar    1  UNL1        0.0173
     13 C         141.7560  139.9442  162.0934 C.ar    1  UNL1        0.0028
     14 C         142.8850  139.2480  162.7939 C.ar    1  UNL1        0.0192
     15 C         143.9945  138.6291  161.9965 C.ar    1  UNL1        0.0985
     16 N         143.9751  138.7064  160.4987 N.ar    1  UNL1       -0.2457
     17 C         142.8268  139.4801  158.3003 C.3     1  UNL1        0.1876
     18 C         142.6956  137.0075  157.5133 C.3     1  UNL1        0.1747
     19 O         143.3719  138.3461  157.4836 O.3     1  UNL1       -0.3447
     20 C         139.4267  140.5123  169.6635 C.2     1  UNL1        0.2455
     21 N         139.5201  141.8147  170.4020 N.am    1  UNL1       -0.3252
     22 O         138.1612  139.7089  169.7171 O.2     1  UNL1       -0.2703
     23 H         140.3507  142.3420  170.3668 H       1  UNL1        0.1453
     24 H         138.7508  142.1421  170.9218 H       1  UNL1        0.1453
     25 N         139.3880  140.6670  166.6678 N.pl3   1  UNL1       -0.3338
     26 H         139.1914  141.6291  166.7389 H       1  UNL1        0.1468
     27 C         138.4958  139.7774  165.8537 C.3     1  UNL1        0.0692
     28 C         137.8797  138.5602  166.4771 C.3     1  UNL1        0.0212
     29 C         138.2200  140.1050  164.4162 C.3     1  UNL1        0.0229
     30 C         137.8395  141.5023  164.0250 C.3     1  UNL1        0.0338
     31 C         137.5636  141.8299  162.5874 C.3     1  UNL1        0.1422
     32 O         137.6682  140.7603  161.5410 O.3     1  UNL1       -0.3538
     33 C         138.0486  139.3630  161.9322 C.3     1  UNL1        0.1422
     34 C         138.3245  139.0354  163.3697 C.3     1  UNL1        0.0338
@<TRIPOS>BOND
     1    18    19    1
     2    19    17    1
     3    17    11    1
     4    11    12   ar
     5    12    13   ar
     6    13    14   ar
     7    14     1    1
     8     1     2   ar
     9     2     3   ar
    10     3     4   ar
    11     4     5   ar
    12     5     6   ar
    13     6     7   ar
    14     7    20    1
    15    20    21   am
    16    20    22    2
    17     7     8   ar
    18     8    25    1
    19    25    27    1
    20    27    28    1
    21    27    29    1
    22    29    30    1
    23    30    31    1
    24    31    32    1
    25    32    33    1
    26    33    34    1
    27     8     9   ar
    28     9    10   ar
    29    14    15   ar
    30    15    16   ar
    31    16    11   ar
    32    10     1   ar
    33     9     4   ar
    34    34    29    1
    35    21    23    1
    36    21    24    1
    37    25    26    1
@<TRIPOS>MOLECULE
*****
 34 37 0 0 0
SMALL
GASTEIGER

@<TRIPOS>ATOM
      1 C         138.6971  140.0338  165.2989 C.ar    1  UNL1        0.0016
      2 C         137.9342  139.1214  166.2128 C.ar    1  UNL1        0.0016
      3 C         138.2757  139.0649  167.6723 C.ar    1  UNL1        0.0191
      4 C         139.3801  139.9208  168.2178 C.ar    1  UNL1        0.0825
      5 N         139.7215  139.8643  169.6774 N.ar    1  UNL1       -0.2436
      6 C         140.8259  140.7203  170.2230 C.ar    1  UNL1        0.1045
      7 C         141.5889  141.6327  169.3089 C.ar    1  UNL1        0.0853
      8 C         141.2474  141.6892  167.8495 C.ar    1  UNL1        0.0519
      9 C         140.1430  140.8333  167.3039 C.ar    1  UNL1        0.0309
     10 C         139.8015  140.8898  165.8444 C.ar    1  UNL1        0.0028
     11 C         137.6728  140.2035  160.9202 C.ar    1  UNL1        0.0888
     12 C         138.1885  138.9295  161.5210 C.ar    1  UNL1        0.0173
     13 C         138.5300  138.8730  162.9806 C.ar    1  UNL1        0.0028
     14 C         138.3557  140.0904  163.8393 C.ar    1  UNL1        0.0192
     15 C         137.8399  141.3644  163.2385 C.ar    1  UNL1        0.0985
     16 N         137.4984  141.4210  161.7790 N.ar    1  UNL1       -0.2457
     17 C         137.3313  140.2601  159.4607 C.3     1  UNL1        0.1876
     18 C         139.5947  140.4447  158.1986 C.3     1  UNL1        0.1747
     19 O         138.2982  139.7311  158.4433 O.3     1  UNL1       -0.3447
     20 C         142.6933  142.4887  169.8545 C.2     1  UNL1        0.2455
     21 N         142.5667  143.0959  171.2203 N.am    1  UNL1       -0.3252
     22 O         143.9243  142.7374  169.0343 O.2     1  UNL1       -0.2703
     23 H         141.7587  142.9326  171.7586 H       1  UNL1        0.1453
     24 H         143.2915  143.6577  171.5784 H       1  UNL1        0.1453
     25 N         142.0103  142.6017  166.9355 N.pl3   1  UNL1       -0.3338
     26 H         141.9862  143.5753  167.0795 H       1  UNL1        0.1468
     27 C         142.8101  142.0307  165.8021 C.3     1  UNL1        0.0692
     28 C         143.4002  140.6566  165.9182 C.3     1  UNL1        0.0212
     29 C         143.0197  142.8339  164.5528 C.3     1  UNL1        0.0229
     30 C         144.2896  142.6838  163.7688 C.3     1  UNL1        0.0338
     31 C         144.4992  143.4870  162.5194 C.3     1  UNL1        0.1422
     32 O         143.4388  144.4404  162.0540 O.3     1  UNL1       -0.3538
     33 C         142.1688  144.5906  162.8380 C.3     1  UNL1        0.1422
     34 C         141.9592  143.7874  164.0874 C.3     1  UNL1        0.0338
@<TRIPOS>BOND
     1    18    19    1
     2    19    17    1
     3    17    11    1
     4    11    12   ar
     5    12    13   ar
     6    13    14   ar
     7    14     1    1
     8     1     2   ar
     9     2     3   ar
    10     3     4   ar
    11     4     5   ar
    12     5     6   ar
    13     6     7   ar
    14     7    20    1
    15    20    21   am
    16    20    22    2
    17     7     8   ar
    18     8    25    1
    19    25    27    1
    20    27    28    1
    21    27    29    1
    22    29    30    1
    23    30    31    1
    24    31    32    1
    25    32    33    1
    26    33    34    1
    27     8     9   ar
    28     9    10   ar
    29    14    15   ar
    30    15    16   ar
    31    16    11   ar
    32    10     1   ar
    33     9     4   ar
    34    34    29    1
    35    21    23    1
    36    21    24    1
    37    25    26    1
@<TRIPOS>MOLECULE
*****
 34 37 0 0 0
SMALL
GASTEIGER

@<TRIPOS>ATOM
      1 C         139.4553  139.2024  164.7742 C.ar    1  UNL1        0.0016
      2 C         138.5259  138.2039  165.3981 C.ar    1  UNL1        0.0016
      3 C         138.1597  138.3239  166.8477 C.ar    1  UNL1        0.0191
      4 C         138.7228  139.4424  167.6734 C.ar    1  UNL1        0.0825
      5 N         138.3566  139.5624  169.1231 N.ar    1  UNL1       -0.2436
      6 C         138.9197  140.6809  169.9488 C.ar    1  UNL1        0.1045
      7 C         139.8491  141.6794  169.3249 C.ar    1  UNL1        0.0853
      8 C         140.2154  141.5594  167.8753 C.ar    1  UNL1        0.0519
      9 C         139.6522  140.4409  167.0495 C.ar    1  UNL1        0.0309
     10 C         140.0184  140.3209  165.5999 C.ar    1  UNL1        0.0028
     11 C         140.5541  138.8424  160.4252 C.ar    1  UNL1        0.0888
     12 C         141.3256  139.7669  161.3197 C.ar    1  UNL1        0.0173
     13 C         140.9593  139.8869  162.7693 C.ar    1  UNL1        0.0028
     14 C         139.8216  139.0824  163.3245 C.ar    1  UNL1        0.0192
     15 C         139.0500  138.1579  162.4301 C.ar    1  UNL1        0.0985
     16 N         139.4163  138.0379  160.9805 N.ar    1  UNL1       -0.2457
     17 C         140.9203  138.7223  158.9756 C.3     1  UNL1        0.1876
     18 C         142.3644  137.5341  157.1720 C.3     1  UNL1        0.1747
     19 O         142.1888  138.0279  158.5776 O.3     1  UNL1       -0.3447
     20 C         140.4123  142.7979  170.1506 C.2     1  UNL1        0.2455
     21 N         141.2201  142.4917  171.3769 N.am    1  UNL1       -0.3252
     22 O         140.1676  144.2226  169.7501 O.2     1  UNL1       -0.2703
     23 H         141.3807  141.5566  171.6398 H       1  UNL1        0.1453
     24 H         141.5897  143.2258  171.9189 H       1  UNL1        0.1453
     25 N         141.1447  142.5579  167.2514 N.pl3   1  UNL1       -0.3338
     26 H         140.7886  143.3983  166.8825 H       1  UNL1        0.1468
     27 C         142.6167  142.2758  167.1895 C.3     1  UNL1        0.0692
     28 C         143.4189  142.1959  168.4545 C.3     1  UNL1        0.0212
     29 C         143.2865  142.0737  165.8627 C.3     1  UNL1        0.0229
     30 C         143.6308  140.6892  165.3995 C.3     1  UNL1        0.0338
     31 C         144.3006  140.4871  164.0726 C.3     1  UNL1        0.1422
     32 O         144.6261  141.6695  163.2090 O.3     1  UNL1       -0.3538
     33 C         144.2818  143.0540  163.6721 C.3     1  UNL1        0.1422
     34 C         143.6120  143.2561  164.9989 C.3     1  UNL1        0.0338
@<TRIPOS>BOND
     1    18    19    1
     2    19    17    1
     3    17    11    1
     4    11    12   ar
     5    12    13   ar
     6    13    14   ar
     7    14     1    1
     8     1     2   ar
     9     2     3   ar
    10     3     4   ar
    11     4     5   ar
    12     5     6   ar
    13     6     7   ar
    14     7    20    1
    15    20    21   am
    16    20    22    2
    17     7     8   ar
    18     8    25    1
    19    25    27    1
    20    27    28    1
    21    27    29    1
    22    29    30    1
    23    30    31    1
    24    31    32    1
    25    32    33    1
    26    33    34    1
    27     8     9   ar
    28     9    10   ar
    29    14    15   ar
    30    15    16   ar
    31    16    11   ar
    32    10     1   ar
    33     9     4   ar
    34    34    29    1
    35    21    23    1
    36    21    24    1
    37    25    26    1
@<TRIPOS>MOLECULE
*****
 34 37 0 0 0
SMALL
GASTEIGER

@<TRIPOS>ATOM
      1 C         139.3795  139.2516  164.8223 C.ar    1  UNL1        0.0016
      2 C         138.0715  139.0979  165.5402 C.ar    1  UNL1        0.0016
      3 C         138.0082  139.2704  167.0289 C.ar    1  UNL1        0.0191
      4 C         139.2530  139.5966  167.7997 C.ar    1  UNL1        0.0825
      5 N         139.1898  139.7691  169.2884 N.ar    1  UNL1       -0.2436
      6 C         140.4346  140.0953  170.0592 C.ar    1  UNL1        0.1045
      7 C         141.7426  140.2489  169.3412 C.ar    1  UNL1        0.0853
      8 C         141.8059  140.0764  167.8526 C.ar    1  UNL1        0.0519
      9 C         140.5611  139.7502  167.0818 C.ar    1  UNL1        0.0309
     10 C         140.6243  139.5777  165.5931 C.ar    1  UNL1        0.0028
     11 C         139.5693  138.7340  160.3561 C.ar    1  UNL1        0.0888
     12 C         140.5585  139.6221  161.0509 C.ar    1  UNL1        0.0173
     13 C         140.4952  139.7946  162.5397 C.ar    1  UNL1        0.0028
     14 C         139.4428  139.0791  163.3336 C.ar    1  UNL1        0.0192
     15 C         138.4536  138.1910  162.6388 C.ar    1  UNL1        0.0985
     16 N         138.5168  138.0184  161.1501 N.ar    1  UNL1       -0.2457
     17 C         139.6325  138.5615  158.8675 C.3     1  UNL1        0.1876
     18 C         137.9356  140.5054  158.5649 C.3     1  UNL1        0.1747
     19 O         138.8640  139.4874  157.9719 O.3     1  UNL1       -0.3447
     20 C         142.9874  140.5751  170.1120 C.2     1  UNL1        0.2455
     21 N         143.4987  139.6204  171.1499 N.am    1  UNL1       -0.3252
     22 O         143.7210  141.8559  169.8449 O.2     1  UNL1       -0.2703
     23 H         143.0172  138.7797  171.3252 H       1  UNL1        0.1453
     24 H         144.3157  139.8344  171.6558 H       1  UNL1        0.1453
     25 N         143.1139  140.2301  167.1347 N.pl3   1  UNL1       -0.3338
     26 H         143.8207  139.5544  167.2494 H       1  UNL1        0.1468
     27 C         143.3450  141.4132  166.2420 C.3     1  UNL1        0.0692
     28 C         142.9748  142.7895  166.7099 C.3     1  UNL1        0.0212
     29 C         143.9464  141.2201  164.8815 C.3     1  UNL1        0.0229
     30 C         143.8221  139.8961  164.1876 C.3     1  UNL1        0.0338
     31 C         144.4234  139.7030  162.8270 C.3     1  UNL1        0.1422
     32 O         145.1491  140.8339  162.1604 O.3     1  UNL1       -0.3538
     33 C         145.2734  142.1579  162.8543 C.3     1  UNL1        0.1422
     34 C         144.6721  142.3510  164.2148 C.3     1  UNL1        0.0338
@<TRIPOS>BOND
     1    18    19    1
     2    19    17    1
     3    17    11    1
     4    11    12   ar
     5    12    13   ar
     6    13    14   ar
     7    14     1    1
     8     1     2   ar
     9     2     3   ar
    10     3     4   ar
    11     4     5   ar
    12     5     6   ar
    13     6     7   ar
    14     7    20    1
    15    20    21   am
    16    20    22    2
    17     7     8   ar
    18     8    25    1
    19    25    27    1
    20    27    28    1
    21    27    29    1
    22    29    30    1
    23    30    31    1
    24    31    32    1
    25    32    33    1
    26    33    34    1
    27     8     9   ar
    28     9    10   ar
    29    14    15   ar
    30    15    16   ar
    31    16    11   ar
    32    10     1   ar
    33     9     4   ar
    34    34    29    1
    35    21    23    1
    36    21    24    1
    37    25    26    1
@<TRIPOS>MOLECULE
*****
 34 37 0 0 0
SMALL
GASTEIGER

@<TRIPOS>ATOM
      1 C         139.4414  139.3314  164.3604 C.ar    1  UNL1        0.0016
      2 C         138.6048  138.3456  165.1208 C.ar    1  UNL1        0.0016
      3 C         138.4247  138.4997  166.6019 C.ar    1  UNL1        0.0191
      4 C         139.0813  139.6397  167.3226 C.ar    1  UNL1        0.0825
      5 N         138.9012  139.7938  168.8038 N.ar    1  UNL1       -0.2436
      6 C         139.5578  140.9337  169.5246 C.ar    1  UNL1        0.1045
      7 C         140.3944  141.9195  168.7641 C.ar    1  UNL1        0.0853
      8 C         140.5745  141.7654  167.2830 C.ar    1  UNL1        0.0519
      9 C         139.9179  140.6255  166.5623 C.ar    1  UNL1        0.0309
     10 C         140.0980  140.4713  165.0811 C.ar    1  UNL1        0.0028
     11 C         139.9817  138.8690  159.9168 C.ar    1  UNL1        0.0888
     12 C         140.6813  139.9775  160.6461 C.ar    1  UNL1        0.0173
     13 C         140.5012  140.1316  162.1273 C.ar    1  UNL1        0.0028
     14 C         139.6215  139.1773  162.8792 C.ar    1  UNL1        0.0192
     15 C         138.9219  138.0688  162.1499 C.ar    1  UNL1        0.0985
     16 N         139.1019  137.9147  160.6688 N.ar    1  UNL1       -0.2457
     17 C         140.1617  138.7149  158.4357 C.3     1  UNL1        0.1876
     18 C         142.5770  137.7581  158.4008 C.3     1  UNL1        0.1747
     19 O         141.5409  138.6905  157.8464 O.3     1  UNL1       -0.3447
     20 C         141.0510  143.0594  169.4849 C.2     1  UNL1        0.2455
     21 N         140.2128  144.1452  170.0921 N.am    1  UNL1       -0.3252
     22 O         142.5457  143.1136  169.5985 O.2     1  UNL1       -0.2703
     23 H         139.2318  144.1097  170.0175 H       1  UNL1        0.1453
     24 H         140.6437  144.8934  170.5651 H       1  UNL1        0.1453
     25 N         141.4111  142.7512  166.5226 N.pl3   1  UNL1       -0.3338
     26 H         142.3605  142.8725  166.7534 H       1  UNL1        0.1468
     27 C         140.8013  143.5522  165.4106 C.3     1  UNL1        0.0692
     28 C         139.4034  144.0792  165.5452 C.3     1  UNL1        0.0212
     29 C         141.5894  143.8263  164.1641 C.3     1  UNL1        0.0229
     30 C         140.9087  143.8102  162.8276 C.3     1  UNL1        0.0338
     31 C         141.6969  144.0842  161.5811 C.3     1  UNL1        0.1422
     32 O         143.1657  144.3744  161.6712 O.3     1  UNL1       -0.3538
     33 C         143.8465  144.3906  163.0077 C.3     1  UNL1        0.1422
     34 C         143.0584  144.1165  164.2542 C.3     1  UNL1        0.0338
@<TRIPOS>BOND
     1    18    19    1
     2    19    17    1
     3    17    11    1
     4    11    12   ar
     5    12    13   ar
     6    13    14   ar
     7    14     1    1
     8     1     2   ar
     9     2     3   ar
    10     3     4   ar
    11     4     5   ar
    12     5     6   ar
    13     6     7   ar
    14     7    20    1
    15    20    21   am
    16    20    22    2
    17     7     8   ar
    18     8    25    1
    19    25    27    1
    20    27    28    1
    21    27    29    1
    22    29    30    1
    23    30    31    1
    24    31    32    1
    25    32    33    1
    26    33    34    1
    27     8     9   ar
    28     9    10   ar
    29    14    15   ar
    30    15    16   ar
    31    16    11   ar
    32    10     1   ar
    33     9     4   ar
    34    34    29    1
    35    21    23    1
    36    21    24    1
    37    25    26    1
@<TRIPOS>MOLECULE
*****
 34 37 0 0 0
SMALL
GASTEIGER

@<TRIPOS>ATOM
      1 C         139.9737  139.3051  165.4025 C.ar    1  UNL1        0.0016
      2 C         139.1006  138.1383  165.0474 C.ar    1  UNL1        0.0016
      3 C         138.8797  137.7775  163.6083 C.ar    1  UNL1        0.0191
      4 C         139.5319  138.5836  162.5244 C.ar    1  UNL1        0.0825
      5 N         139.3110  138.2228  161.0852 N.ar    1  UNL1       -0.2436
      6 C         139.9632  139.0289  160.0013 C.ar    1  UNL1        0.1045
      7 C         140.8363  140.1958  160.3565 C.ar    1  UNL1        0.0853
      8 C         141.0572  140.5565  161.7956 C.ar    1  UNL1        0.0519
      9 C         140.4050  139.7504  162.8795 C.ar    1  UNL1        0.0309
     10 C         140.6259  140.1112  164.3186 C.ar    1  UNL1        0.0028
     11 C         140.6364  140.3875  169.7199 C.ar    1  UNL1        0.0888
     12 C         141.7896  140.3896  168.7607 C.ar    1  UNL1        0.0173
     13 C         141.5687  140.0288  167.3215 C.ar    1  UNL1        0.0028
     14 C         140.1946  139.6659  166.8417 C.ar    1  UNL1        0.0192
     15 C         139.0415  139.6637  167.8010 C.ar    1  UNL1        0.0985
     16 N         139.2623  140.0245  169.2401 N.ar    1  UNL1       -0.2457
     17 C         140.8573  140.7482  171.1590 C.3     1  UNL1        0.1876
     18 C         139.8853  143.1187  170.7274 C.3     1  UNL1        0.1747
     19 O         140.3920  142.0759  171.6793 O.3     1  UNL1       -0.3447
     20 C         141.4885  141.0018  159.2726 C.2     1  UNL1        0.2455
     21 N         140.6535  141.6119  158.1860 N.am    1  UNL1       -0.3252
     22 O         142.9756  141.1979  159.2753 O.2     1  UNL1       -0.2703
     23 H         139.6775  141.4832  158.1842 H       1  UNL1        0.1453
     24 H         141.0816  142.1409  157.4746 H       1  UNL1        0.1453
     25 N         141.9303  141.7233  162.1508 N.pl3   1  UNL1       -0.3338
     26 H         142.8627  141.5737  162.4292 H       1  UNL1        0.1468
     27 C         141.3828  143.1182  162.0818 C.3     1  UNL1        0.0692
     28 C         142.0063  144.1238  161.1598 C.3     1  UNL1        0.0212
     29 C         140.2120  143.5074  162.9348 C.3     1  UNL1        0.0229
     30 C         140.4147  143.8268  164.3862 C.3     1  UNL1        0.0338
     31 C         139.2438  144.2160  165.2392 C.3     1  UNL1        0.1422
     32 O         137.8702  144.2858  164.6407 O.3     1  UNL1       -0.3538
     33 C         137.6674  143.9663  163.1892 C.3     1  UNL1        0.1422
     34 C         138.8383  143.5771  162.3362 C.3     1  UNL1        0.0338
@<TRIPOS>BOND
     1    18    19    1
     2    19    17    1
     3    17    11    1
     4    11    12   ar
     5    12    13   ar
     6    13    14   ar
     7    14     1    1
     8     1     2   ar
     9     2     3   ar
    10     3     4   ar
    11     4     5   ar
    12     5     6   ar
    13     6     7   ar
    14     7    20    1
    15    20    21   am
    16    20    22    2
    17     7     8   ar
    18     8    25    1
    19    25    27    1
    20    27    28    1
    21    27    29    1
    22    29    30    1
    23    30    31    1
    24    31    32    1
    25    32    33    1
    26    33    34    1
    27     8     9   ar
    28     9    10   ar
    29    14    15   ar
    30    15    16   ar
    31    16    11   ar
    32    10     1   ar
    33     9     4   ar
    34    34    29    1
    35    21    23    1
    36    21    24    1
    37    25    26    1
@<TRIPOS>MOLECULE
*****
 34 37 0 0 0
SMALL
GASTEIGER

@<TRIPOS>ATOM
      1 C         143.0603  141.5036  165.5122 C.ar    1  UNL1        0.0016
      2 C         143.8997  142.6719  165.0875 C.ar    1  UNL1        0.0016
      3 C         144.3532  142.7909  163.6627 C.ar    1  UNL1        0.0191
      4 C         143.9674  141.7416  162.6626 C.ar    1  UNL1        0.0825
      5 N         144.4210  141.8606  161.2378 N.ar    1  UNL1       -0.2436
      6 C         144.0351  140.8113  160.2377 C.ar    1  UNL1        0.1045
      7 C         143.1957  139.6430  160.6625 C.ar    1  UNL1        0.0853
      8 C         142.7422  139.5240  162.0873 C.ar    1  UNL1        0.0519
      9 C         143.1280  140.5733  163.0874 C.ar    1  UNL1        0.0309
     10 C         142.6744  140.4543  164.5122 C.ar    1  UNL1        0.0028
     11 C         141.6996  141.1464  169.7868 C.ar    1  UNL1        0.0888
     12 C         141.1085  140.2556  168.7346 C.ar    1  UNL1        0.0173
     13 C         141.5621  140.3746  167.3097 C.ar    1  UNL1        0.0028
     14 C         142.6067  141.3845  166.9371 C.ar    1  UNL1        0.0192
     15 C         143.1978  142.2754  167.9892 C.ar    1  UNL1        0.0985
     16 N         142.7442  142.1563  169.4140 N.ar    1  UNL1       -0.2457
     17 C         141.2460  141.0274  171.2115 C.3     1  UNL1        0.1876
     18 C         139.6010  143.0232  170.9647 C.3     1  UNL1        0.1747
     19 O         140.4279  142.1209  171.8320 O.3     1  UNL1       -0.3447
     20 C         142.8099  138.5937  159.6625 C.2     1  UNL1        0.2455
     21 N         142.2026  138.9949  158.3508 N.am    1  UNL1       -0.3252
     22 O         143.0313  137.1432  159.9740 O.2     1  UNL1       -0.2703
     23 H         142.0573  139.9469  158.1464 H       1  UNL1        0.1453
     24 H         141.9493  138.3062  157.6945 H       1  UNL1        0.1453
     25 N         141.9028  138.3557  162.5121 N.pl3   1  UNL1       -0.3338
     26 H         142.3334  137.5356  162.8456 H       1  UNL1        0.1468
     27 C         140.4072  138.4368  162.4286 C.3     1  UNL1        0.0692
     28 C         139.7124  138.1573  161.1290 C.3     1  UNL1        0.0212
     29 C         139.6067  138.7976  163.6447 C.3     1  UNL1        0.0229
     30 C         139.2994  137.7538  164.6772 C.3     1  UNL1        0.0338
     31 C         138.4988  138.1146  165.8933 C.3     1  UNL1        0.1422
     32 O         138.0055  139.5191  166.0769 O.3     1  UNL1       -0.3538
     33 C         138.3127  140.5630  165.0444 C.3     1  UNL1        0.1422
     34 C         139.1133  140.2022  163.8283 C.3     1  UNL1        0.0338
@<TRIPOS>BOND
     1    18    19    1
     2    19    17    1
     3    17    11    1
     4    11    12   ar
     5    12    13   ar
     6    13    14   ar
     7    14     1    1
     8     1     2   ar
     9     2     3   ar
    10     3     4   ar
    11     4     5   ar
    12     5     6   ar
    13     6     7   ar
    14     7    20    1
    15    20    21   am
    16    20    22    2
    17     7     8   ar
    18     8    25    1
    19    25    27    1
    20    27    28    1
    21    27    29    1
    22    29    30    1
    23    30    31    1
    24    31    32    1
    25    32    33    1
    26    33    34    1
    27     8     9   ar
    28     9    10   ar
    29    14    15   ar
    30    15    16   ar
    31    16    11   ar
    32    10     1   ar
    33     9     4   ar
    34    34    29    1
    35    21    23    1
    36    21    24    1
    37    25    26    1
@<TRIPOS>MOLECULE
*****
 34 37 0 0 0
SMALL
GASTEIGER

@<TRIPOS>ATOM
      1 C         139.6643  139.3013  165.4068 C.ar    1  UNL1        0.0016
      2 C         139.3575  137.8818  165.0315 C.ar    1  UNL1        0.0016
      3 C         139.0641  137.5303  163.6031 C.ar    1  UNL1        0.0191
      4 C         139.0774  138.5984  162.5500 C.ar    1  UNL1        0.0825
      5 N         138.7839  138.2470  161.1215 N.ar    1  UNL1       -0.2436
      6 C         138.7972  139.3150  160.0684 C.ar    1  UNL1        0.1045
      7 C         139.1040  140.7346  160.4438 C.ar    1  UNL1        0.0853
      8 C         139.3974  141.0860  161.8722 C.ar    1  UNL1        0.0519
      9 C         139.3841  140.0179  162.9253 C.ar    1  UNL1        0.0309
     10 C         139.6776  140.3693  164.3537 C.ar    1  UNL1        0.0028
     11 C         140.5446  140.3557  169.6921 C.ar    1  UNL1        0.0888
     12 C         141.6370  140.4140  168.6657 C.ar    1  UNL1        0.0173
     13 C         141.3435  140.0625  167.2373 C.ar    1  UNL1        0.0028
     14 C         139.9577  139.6527  166.8352 C.ar    1  UNL1        0.0192
     15 C         138.8654  139.5944  167.8616 C.ar    1  UNL1        0.0985
     16 N         139.1588  139.9458  169.2899 N.ar    1  UNL1       -0.2457
     17 C         140.8380  140.7071  171.1205 C.3     1  UNL1        0.1876
     18 C         139.8633  143.0846  170.7362 C.3     1  UNL1        0.1747
     19 O         140.4782  142.0644  171.6479 O.3     1  UNL1       -0.3447
     20 C         139.1173  141.8027  159.3907 C.2     1  UNL1        0.2455
     21 N         139.8561  141.5787  158.1045 N.am    1  UNL1       -0.3252
     22 O         138.3918  143.0947  159.6237 O.2     1  UNL1       -0.2703
     23 H         140.3322  140.7307  157.9516 H       1  UNL1        0.1453
     24 H         139.8648  142.2797  157.4133 H       1  UNL1        0.1453
     25 N         139.7042  142.5055  162.2475 N.pl3   1  UNL1       -0.3338
     26 H         138.9784  143.1078  162.5300 H       1  UNL1        0.1468
     27 C         141.1167  143.0074  162.1923 C.3     1  UNL1        0.0692
     28 C         141.5230  143.9889  161.1333 C.3     1  UNL1        0.0212
     29 C         142.1228  142.5278  163.1961 C.3     1  UNL1        0.0229
     30 C         142.2593  143.2291  164.5150 C.3     1  UNL1        0.0338
     31 C         143.2655  142.7494  165.5189 C.3     1  UNL1        0.1422
     32 O         144.1351  141.5686  165.2037 O.3     1  UNL1       -0.3538
     33 C         143.9986  140.8673  163.8848 C.3     1  UNL1        0.1422
     34 C         142.9925  141.3469  162.8810 C.3     1  UNL1        0.0338
@<TRIPOS>BOND
     1    18    19    1
     2    19    17    1
     3    17    11    1
     4    11    12   ar
     5    12    13   ar
     6    13    14   ar
     7    14     1    1
     8     1     2   ar
     9     2     3   ar
    10     3     4   ar
    11     4     5   ar
    12     5     6   ar
    13     6     7   ar
    14     7    20    1
    15    20    21   am
    16    20    22    2
    17     7     8   ar
    18     8    25    1
    19    25    27    1
    20    27    28    1
    21    27    29    1
    22    29    30    1
    23    30    31    1
    24    31    32    1
    25    32    33    1
    26    33    34    1
    27     8     9   ar
    28     9    10   ar
    29    14    15   ar
    30    15    16   ar
    31    16    11   ar
    32    10     1   ar
    33     9     4   ar
    34    34    29    1
    35    21    23    1
    36    21    24    1
    37    25    26    1
@<TRIPOS>MOLECULE
*****
 34 37 0 0 0
SMALL
GASTEIGER

@<TRIPOS>ATOM
      1 C         139.3231  141.8402  163.0679 C.ar    1  UNL1        0.0016
      2 C         138.3259  140.7838  162.6943 C.ar    1  UNL1        0.0016
      3 C         137.8142  139.8335  163.7360 C.ar    1  UNL1        0.0191
      4 C         138.2998  139.9396  165.1512 C.ar    1  UNL1        0.0825
      5 N         137.7881  138.9892  166.1929 N.ar    1  UNL1       -0.2436
      6 C         138.2737  139.0953  167.6082 C.ar    1  UNL1        0.1045
      7 C         139.2709  140.1517  167.9818 C.ar    1  UNL1        0.0853
      8 C         139.7826  141.1020  166.9401 C.ar    1  UNL1        0.0519
      9 C         139.2970  140.9959  165.5248 C.ar    1  UNL1        0.0309
     10 C         139.8087  141.9462  164.4832 C.ar    1  UNL1        0.0028
     11 C         140.8582  144.6913  159.9429 C.ar    1  UNL1        0.0888
     12 C         141.3974  143.2933  160.0124 C.ar    1  UNL1        0.0173
     13 C         140.8857  142.3429  161.0541 C.ar    1  UNL1        0.0028
     14 C         139.8348  142.7906  162.0262 C.ar    1  UNL1        0.0192
     15 C         139.2955  144.1885  161.9568 C.ar    1  UNL1        0.0985
     16 N         139.8072  145.1389  160.9152 N.ar    1  UNL1       -0.2457
     17 C         141.3698  145.6416  158.9013 C.3     1  UNL1        0.1876
     18 C         140.0093  146.3240  156.7958 C.3     1  UNL1        0.1747
     19 O         141.0180  145.4330  157.4582 O.3     1  UNL1       -0.3447
     20 C         139.7565  140.2577  169.3970 C.2     1  UNL1        0.2455
     21 N         139.0784  141.1924  170.3545 N.am    1  UNL1       -0.3252
     22 O         140.9201  139.4292  169.8548 O.2     1  UNL1       -0.2703
     23 H         138.3147  141.7362  170.0541 H       1  UNL1        0.1453
     24 H         139.3971  141.2620  171.2834 H       1  UNL1        0.1453
     25 N         140.7798  142.1583  167.3137 N.pl3   1  UNL1       -0.3338
     26 H         140.4887  143.0919  167.4275 H       1  UNL1        0.1468
     27 C         142.2207  141.7923  167.5139 C.3     1  UNL1        0.0692
     28 C         142.9907  142.3772  168.6607 C.3     1  UNL1        0.0212
     29 C         142.8915  140.8415  166.5674 C.3     1  UNL1        0.0229
     30 C         143.5190  141.3566  165.3061 C.3     1  UNL1        0.0338
     31 C         144.1899  140.4057  164.3596 C.3     1  UNL1        0.1422
     32 O         144.2331  138.9398  164.6743 O.3     1  UNL1       -0.3538
     33 C         143.6055  138.4247  165.9356 C.3     1  UNL1        0.1422
     34 C         142.9347  139.3755  166.8821 C.3     1  UNL1        0.0338
@<TRIPOS>BOND
     1    18    19    1
     2    19    17    1
     3    17    11    1
     4    11    12   ar
     5    12    13   ar
     6    13    14   ar
     7    14     1    1
     8     1     2   ar
     9     2     3   ar
    10     3     4   ar
    11     4     5   ar
    12     5     6   ar
    13     6     7   ar
    14     7    20    1
    15    20    21   am
    16    20    22    2
    17     7     8   ar
    18     8    25    1
    19    25    27    1
    20    27    28    1
    21    27    29    1
    22    29    30    1
    23    30    31    1
    24    31    32    1
    25    32    33    1
    26    33    34    1
    27     8     9   ar
    28     9    10   ar
    29    14    15   ar
    30    15    16   ar
    31    16    11   ar
    32    10     1   ar
    33     9     4   ar
    34    34    29    1
    35    21    23    1
    36    21    24    1
    37    25    26    1
