@<TRIPOS>MOLECULE
*****
 36 40 0 0 0
SMALL
GASTEIGER

@<TRIPOS>ATOM
      1 C         142.4448  139.5919  165.4083 C.ar    1  UNL1        0.0511
      2 C         143.8549  139.8438  164.9632 C.ar    1  UNL1        0.0160
      3 C         144.3578  139.2385  163.6862 C.ar    1  UNL1        0.0190
      4 C         143.4506  138.3814  162.8542 C.ar    1  UNL1        0.0850
      5 C         142.0405  138.1295  163.2993 C.ar    1  UNL1        0.1533
      6 C         141.5376  138.7347  164.5763 C.ar    1  UNL1        0.0527
      7 C         140.4334  142.0131  170.5163 C.2     1  UNL1        0.4051
      8 O         140.7849  141.3862  171.8329 O.2     1  UNL1       -0.2262
      9 N         140.9362  141.4078  169.2392 N.am    1  UNL1       -0.2425
     10 C         140.5847  142.0348  167.9227 C.3     1  UNL1        0.1181
     11 C         141.0876  141.4294  166.6457 C.3     1  UNL1        0.1124
     12 N         141.9420  140.1971  166.6853 N.pl3   1  UNL1       -0.3040
     13 C         142.2935  139.5702  168.0019 C.3     1  UNL1        0.1124
     14 C         141.7906  140.1756  169.2788 C.3     1  UNL1        0.1181
     15 C         140.2083  144.5873  170.2460 C.3     1  UNL1        0.2573
     16 O         139.5790  143.2454  170.4767 O.3     1  UNL1       -0.4304
     17 N         143.9534  137.7761  161.5772 N.pl3   1  UNL1       -0.2802
     18 H         144.5568  136.9987  161.6050 H       1  UNL1        0.1552
     19 C         143.5368  138.3554  160.2577 C.ar    1  UNL1        0.2208
     20 N         143.8339  139.7913  159.9417 N.ar    1  UNL1       -0.2111
     21 C         143.4173  140.3706  158.6223 C.ar    1  UNL1        0.1147
     22 C         142.7037  139.5140  157.6188 C.ar    1  UNL1        0.0960
     23 CL        142.2871  140.0932  156.2994 Cl      1  UNL1       -0.0790
     24 C         142.4066  138.0779  157.9349 C.ar    1  UNL1        0.1138
     25 N         142.8232  137.4987  159.2543 N.ar    1  UNL1       -0.2111
     26 C         141.6930  137.2213  156.9315 C.ar    1  UNL1        0.1031
     27 C         140.3426  137.4963  156.3390 C.ar    1  UNL1        0.1196
     28 N         140.0194  136.3843  155.3857 N.ar    1  UNL1       -0.2248
     29 C         141.1700  135.4219  155.3890 C.ar    1  UNL1        0.1479
     30 C         141.4096  134.1413  154.6455 C.ar    1  UNL1        0.0374
     31 C         142.6834  133.3781  154.8574 C.ar    1  UNL1        0.0046
     32 C         143.7177  133.8954  155.8127 C.ar    1  UNL1        0.0191
     33 C         143.4781  135.1760  156.5562 C.ar    1  UNL1        0.0815
     34 N         142.2043  135.9393  156.3444 N.ar    1  UNL1       -0.2874
     35 O         141.1332  137.2723  162.4673 O.3     1  UNL1       -0.4701
     36 C         139.8689  137.8476  161.9011 C.3     1  UNL1        0.2525
@<TRIPOS>BOND
     1    15    16    1
     2    16     7    1
     3     7     8    2
     4     7     9   am
     5     9    10    1
     6    10    11    1
     7    11    12    1
     8    12     1    1
     9     1     2   ar
    10     2     3   ar
    11     3     4   ar
    12     4    17    1
    13    17    19    1
    14    19    20   ar
    15    20    21   ar
    16    21    22   ar
    17    22    23    1
    18    22    24   ar
    19    24    26    1
    20    26    27   ar
    21    27    28   ar
    22    28    29   ar
    23    29    30   ar
    24    30    31   ar
    25    31    32   ar
    26    32    33   ar
    27    33    34   ar
    28    24    25   ar
    29     4     5   ar
    30     5    35    1
    31    35    36    1
    32     5     6   ar
    33    12    13    1
    34    13    14    1
    35    14     9    1
    36     6     1   ar
    37    25    19   ar
    38    34    26   ar
    39    34    29   ar
    40    17    18    1
@<TRIPOS>MOLECULE
*****
 36 40 0 0 0
SMALL
GASTEIGER

@<TRIPOS>ATOM
      1 C         142.8378  139.4642  165.1572 C.ar    1  UNL1        0.0511
      2 C         144.1653  139.6451  164.4826 C.ar    1  UNL1        0.0160
      3 C         144.4143  139.0262  163.1390 C.ar    1  UNL1        0.0190
      4 C         143.3358  138.2264  162.4702 C.ar    1  UNL1        0.0850
      5 C         142.0084  138.0456  163.1449 C.ar    1  UNL1        0.1533
      6 C         141.7594  138.6645  164.4884 C.ar    1  UNL1        0.0527
      7 C         141.8421  141.9400  170.5312 C.2     1  UNL1        0.4051
      8 O         141.9682  141.1101  171.7743 O.2     1  UNL1       -0.2262
      9 N         142.0910  141.3210  169.1876 N.am    1  UNL1       -0.2425
     10 C         141.9649  142.1510  167.9446 C.3     1  UNL1        0.1181
     11 C         142.2138  141.5320  166.6011 C.3     1  UNL1        0.1124
     12 N         142.5889  140.0831  166.5007 N.pl3   1  UNL1       -0.3040
     13 C         142.7150  139.2532  167.7438 C.3     1  UNL1        0.1124
     14 C         142.4661  139.8722  169.0873 C.3     1  UNL1        0.1181
     15 C         140.0575  143.8197  170.3529 C.3     1  UNL1        0.2573
     16 O         141.4670  143.3888  170.6315 O.3     1  UNL1       -0.4304
     17 N         143.5847  137.6076  161.1267 N.pl3   1  UNL1       -0.2802
     18 H         144.0107  136.7222  161.0638 H       1  UNL1        0.1552
     19 C         143.1846  138.3377  159.8790 C.ar    1  UNL1        0.2208
     20 N         142.9177  137.5738  158.6159 N.ar    1  UNL1       -0.2111
     21 C         142.5176  138.3039  157.3681 C.ar    1  UNL1        0.1147
     22 C         142.3844  139.7978  157.3834 C.ar    1  UNL1        0.0960
     23 CL        141.9843  140.5280  156.1356 Cl      1  UNL1       -0.0790
     24 C         142.6514  140.5618  158.6465 C.ar    1  UNL1        0.1138
     25 N         143.0515  139.8317  159.8942 N.ar    1  UNL1       -0.2111
     26 C         142.5183  142.0558  158.6617 C.ar    1  UNL1        0.1031
     27 C         143.3131  143.0203  157.8322 C.ar    1  UNL1        0.1196
     28 N         142.8531  144.4082  158.1669 N.ar    1  UNL1       -0.2248
     29 C         141.7739  144.3015  159.2033 C.ar    1  UNL1        0.1479
     30 C         140.9529  145.3403  159.9081 C.ar    1  UNL1        0.0374
     31 C         139.9250  144.9252  160.9187 C.ar    1  UNL1        0.0046
     32 C         139.7181  143.4714  161.2245 C.ar    1  UNL1        0.0191
     33 C         140.5392  142.4325  160.5196 C.ar    1  UNL1        0.0815
     34 N         141.5670  142.8475  159.5091 N.ar    1  UNL1       -0.2874
     35 O         140.9299  137.2459  162.4761 O.3     1  UNL1       -0.4701
     36 C         139.8764  137.9390  161.6639 C.3     1  UNL1        0.2525
@<TRIPOS>BOND
     1    15    16    1
     2    16     7    1
     3     7     8    2
     4     7     9   am
     5     9    10    1
     6    10    11    1
     7    11    12    1
     8    12     1    1
     9     1     2   ar
    10     2     3   ar
    11     3     4   ar
    12     4    17    1
    13    17    19    1
    14    19    20   ar
    15    20    21   ar
    16    21    22   ar
    17    22    23    1
    18    22    24   ar
    19    24    26    1
    20    26    27   ar
    21    27    28   ar
    22    28    29   ar
    23    29    30   ar
    24    30    31   ar
    25    31    32   ar
    26    32    33   ar
    27    33    34   ar
    28    24    25   ar
    29     4     5   ar
    30     5    35    1
    31    35    36    1
    32     5     6   ar
    33    12    13    1
    34    13    14    1
    35    14     9    1
    36     6     1   ar
    37    25    19   ar
    38    34    26   ar
    39    34    29   ar
    40    17    18    1
@<TRIPOS>MOLECULE
*****
 36 40 0 0 0
SMALL
GASTEIGER

@<TRIPOS>ATOM
      1 C         143.5122  140.2532  158.2662 C.ar    1  UNL1        0.0511
      2 C         142.5770  139.1060  158.0228 C.ar    1  UNL1        0.0160
      3 C         142.2418  138.1616  159.1391 C.ar    1  UNL1        0.0190
      4 C         142.8418  138.3646  160.4988 C.ar    1  UNL1        0.0850
      5 C         143.7771  139.5118  160.7421 C.ar    1  UNL1        0.1533
      6 C         144.1123  140.4561  159.6259 C.ar    1  UNL1        0.0527
      7 C         144.8529  144.0299  153.8010 C.2     1  UNL1        0.4051
      8 O         143.8259  145.0077  153.3118 O.2     1  UNL1       -0.2262
      9 N         144.5178  143.0857  154.9174 N.am    1  UNL1       -0.2425
     10 C         145.5448  142.1080  155.4064 C.3     1  UNL1        0.1181
     11 C         145.2095  141.1638  156.5228 C.3     1  UNL1        0.1124
     12 N         143.8473  141.1973  157.1500 N.pl3   1  UNL1       -0.3040
     13 C         142.8204  142.1751  156.6608 C.3     1  UNL1        0.1124
     14 C         143.1556  143.1193  155.5445 C.3     1  UNL1        0.1181
     15 C         147.2112  145.0735  153.4860 C.3     1  UNL1        0.2573
     16 O         146.2151  143.9964  153.1739 O.3     1  UNL1       -0.4304
     17 N         142.5067  137.4204  161.6151 N.pl3   1  UNL1       -0.2802
     18 H         142.9715  136.5553  161.6844 H       1  UNL1        0.1552
     19 C         141.4633  137.7943  162.6258 C.ar    1  UNL1        0.2208
     20 N         141.2192  136.9113  163.8135 N.ar    1  UNL1       -0.2111
     21 C         140.1758  137.2852  164.8243 C.ar    1  UNL1        0.1147
     22 C         139.3766  138.5421  164.6473 C.ar    1  UNL1        0.0960
     23 CL        138.3332  138.9160  165.6580 Cl      1  UNL1       -0.0790
     24 C         139.6206  139.4251  163.4595 C.ar    1  UNL1        0.1138
     25 N         140.6640  139.0512  162.4488 N.ar    1  UNL1       -0.2111
     26 C         138.8214  140.6820  163.2825 C.ar    1  UNL1        0.1031
     27 C         137.7380  140.9025  162.2686 C.ar    1  UNL1        0.1196
     28 N         137.2121  142.2958  162.4477 N.ar    1  UNL1       -0.2248
     29 C         137.9705  142.9364  163.5722 C.ar    1  UNL1        0.1479
     30 C         137.8839  144.2992  164.1931 C.ar    1  UNL1        0.0374
     31 C         138.7919  144.6645  165.3299 C.ar    1  UNL1        0.0046
     32 C         139.7864  143.6671  165.8457 C.ar    1  UNL1        0.0191
     33 C         139.8730  142.3043  165.2248 C.ar    1  UNL1        0.0815
     34 N         138.9650  141.9390  164.0881 N.ar    1  UNL1       -0.2874
     35 O         144.3772  139.7148  162.1018 O.3     1  UNL1       -0.4701
     36 C         143.8356  140.7792  163.0094 C.3     1  UNL1        0.2525
@<TRIPOS>BOND
     1    15    16    1
     2    16     7    1
     3     7     8    2
     4     7     9   am
     5     9    10    1
     6    10    11    1
     7    11    12    1
     8    12     1    1
     9     1     2   ar
    10     2     3   ar
    11     3     4   ar
    12     4    17    1
    13    17    19    1
    14    19    20   ar
    15    20    21   ar
    16    21    22   ar
    17    22    23    1
    18    22    24   ar
    19    24    26    1
    20    26    27   ar
    21    27    28   ar
    22    28    29   ar
    23    29    30   ar
    24    30    31   ar
    25    31    32   ar
    26    32    33   ar
    27    33    34   ar
    28    24    25   ar
    29     4     5   ar
    30     5    35    1
    31    35    36    1
    32     5     6   ar
    33    12    13    1
    34    13    14    1
    35    14     9    1
    36     6     1   ar
    37    25    19   ar
    38    34    26   ar
    39    34    29   ar
    40    17    18    1
@<TRIPOS>MOLECULE
*****
 36 40 0 0 0
SMALL
GASTEIGER

@<TRIPOS>ATOM
      1 C         140.6444  138.6645  157.4842 C.ar    1  UNL1        0.0511
      2 C         141.1788  139.9980  157.0524 C.ar    1  UNL1        0.0160
      3 C         140.5602  141.2596  157.5777 C.ar    1  UNL1        0.0190
      4 C         139.4074  141.1878  158.5346 C.ar    1  UNL1        0.0850
      5 C         138.8731  139.8543  158.9663 C.ar    1  UNL1        0.1533
      6 C         139.4916  138.5927  158.4412 C.ar    1  UNL1        0.0527
      7 C         143.1188  133.6184  155.3833 C.2     1  UNL1        0.4051
      8 O         142.4803  132.8904  154.2378 O.2     1  UNL1       -0.2262
      9 N         142.5003  134.8800  155.9086 N.am    1  UNL1       -0.2425
     10 C         143.1388  135.6079  157.0541 C.3     1  UNL1        0.1181
     11 C         142.5201  136.8695  157.5794 C.3     1  UNL1        0.1124
     12 N         141.2630  137.4030  156.9590 N.pl3   1  UNL1       -0.3040
     13 C         140.6245  136.6751  155.8134 C.3     1  UNL1        0.1124
     14 C         141.2431  135.4136  155.2882 C.3     1  UNL1        0.1181
     15 C         144.6811  131.6177  155.9372 C.3     1  UNL1        0.2573
     16 O         144.3760  133.0849  156.0037 O.3     1  UNL1       -0.4304
     17 N         138.7888  142.4493  159.0599 N.pl3   1  UNL1       -0.2802
     18 H         138.2508  143.0190  158.4638 H       1  UNL1        0.1552
     19 C         138.9900  142.8428  160.4933 C.ar    1  UNL1        0.2208
     20 N         137.8034  143.0715  161.3819 N.ar    1  UNL1       -0.2111
     21 C         138.0046  143.4651  162.8154 C.ar    1  UNL1        0.1147
     22 C         139.3924  143.6299  163.3601 C.ar    1  UNL1        0.0960
     23 CL        139.5936  144.0235  164.7935 Cl      1  UNL1       -0.0790
     24 C         140.5791  143.4013  162.4714 C.ar    1  UNL1        0.1138
     25 N         140.3778  143.0077  161.0380 N.ar    1  UNL1       -0.2111
     26 C         141.9669  143.5661  163.0162 C.ar    1  UNL1        0.1031
     27 C         142.6099  144.8618  163.4137 C.ar    1  UNL1        0.1196
     28 N         143.9957  144.5608  163.9023 N.ar    1  UNL1       -0.2248
     29 C         144.2093  143.0792  163.8067 C.ar    1  UNL1        0.1479
     30 C         145.3835  142.2103  164.1476 C.ar    1  UNL1        0.0374
     31 C         145.3038  140.7267  163.9409 C.ar    1  UNL1        0.0046
     32 C         144.0499  140.1120  163.3933 C.ar    1  UNL1        0.0191
     33 C         142.8757  140.9809  163.0524 C.ar    1  UNL1        0.0815
     34 N         142.9553  142.4644  163.2591 N.ar    1  UNL1       -0.2874
     35 O         137.7202  139.7824  159.9233 O.3     1  UNL1       -0.4701
     36 C         137.9321  139.2654  161.3154 C.3     1  UNL1        0.2525
@<TRIPOS>BOND
     1    15    16    1
     2    16     7    1
     3     7     8    2
     4     7     9   am
     5     9    10    1
     6    10    11    1
     7    11    12    1
     8    12     1    1
     9     1     2   ar
    10     2     3   ar
    11     3     4   ar
    12     4    17    1
    13    17    19    1
    14    19    20   ar
    15    20    21   ar
    16    21    22   ar
    17    22    23    1
    18    22    24   ar
    19    24    26    1
    20    26    27   ar
    21    27    28   ar
    22    28    29   ar
    23    29    30   ar
    24    30    31   ar
    25    31    32   ar
    26    32    33   ar
    27    33    34   ar
    28    24    25   ar
    29     4     5   ar
    30     5    35    1
    31    35    36    1
    32     5     6   ar
    33    12    13    1
    34    13    14    1
    35    14     9    1
    36     6     1   ar
    37    25    19   ar
    38    34    26   ar
    39    34    29   ar
    40    17    18    1
@<TRIPOS>MOLECULE
*****
 36 40 0 0 0
SMALL
GASTEIGER

@<TRIPOS>ATOM
      1 C         142.9873  137.7605  156.9308 C.ar    1  UNL1        0.0511
      2 C         142.6075  138.3178  158.2706 C.ar    1  UNL1        0.0160
      3 C         142.8984  139.7530  158.5958 C.ar    1  UNL1        0.0190
      4 C         143.5691  140.6309  157.5812 C.ar    1  UNL1        0.0850
      5 C         143.9489  140.0735  156.2413 C.ar    1  UNL1        0.1533
      6 C         143.6581  138.6384  155.9161 C.ar    1  UNL1        0.0527
      7 C         141.8236  132.0199  155.6302 C.2     1  UNL1        0.4051
      8 O         142.5035  130.9245  156.3968 O.2     1  UNL1       -0.2262
      9 N         142.1145  133.4552  155.9553 N.am    1  UNL1       -0.2425
     10 C         141.4346  134.5505  155.1886 C.3     1  UNL1        0.1181
     11 C         141.7256  135.9857  155.5138 C.3     1  UNL1        0.1124
     12 N         142.6964  136.3254  156.6056 N.pl3   1  UNL1       -0.3040
     13 C         143.3763  135.2300  157.3723 C.3     1  UNL1        0.1124
     14 C         143.0854  133.7948  157.0471 C.3     1  UNL1        0.1181
     15 C         139.9527  130.4886  154.6790 C.3     1  UNL1        0.2573
     16 O         140.8528  131.6803  154.5383 O.3     1  UNL1       -0.4304
     17 N         143.8600  142.0660  157.9063 N.pl3   1  UNL1       -0.2802
     18 H         144.1496  142.6828  157.1957 H       1  UNL1        0.1552
     19 C         143.7096  142.5614  159.3141 C.ar    1  UNL1        0.2208
     20 N         144.8635  142.4713  160.2682 N.ar    1  UNL1       -0.2111
     21 C         144.7132  142.9667  161.6761 C.ar    1  UNL1        0.1147
     22 C         143.4089  143.5521  162.1299 C.ar    1  UNL1        0.0960
     23 CL        143.2585  144.0474  163.5377 Cl      1  UNL1       -0.0790
     24 C         142.2548  143.6421  161.1758 C.ar    1  UNL1        0.1138
     25 N         142.4052  143.1468  159.7679 N.ar    1  UNL1       -0.2111
     26 C         140.9504  144.2275  161.6295 C.ar    1  UNL1        0.1031
     27 C         140.3796  145.5469  161.2011 C.ar    1  UNL1        0.1196
     28 N         139.0643  145.7312  161.8981 N.ar    1  UNL1       -0.2248
     29 C         138.8222  144.5258  162.7574 C.ar    1  UNL1        0.1479
     30 C         137.6909  144.1542  163.6696 C.ar    1  UNL1        0.0374
     31 C         137.7253  142.8534  164.4158 C.ar    1  UNL1        0.0046
     32 C         138.8910  141.9241  164.2498 C.ar    1  UNL1        0.0191
     33 C         140.0224  142.2957  163.3376 C.ar    1  UNL1        0.0815
     34 N         139.9880  143.5964  162.5914 N.ar    1  UNL1       -0.2874
     35 O         144.6196  140.9513  155.2267 O.3     1  UNL1       -0.4701
     36 C         146.1162  141.0448  155.1881 C.3     1  UNL1        0.2525
@<TRIPOS>BOND
     1    15    16    1
     2    16     7    1
     3     7     8    2
     4     7     9   am
     5     9    10    1
     6    10    11    1
     7    11    12    1
     8    12     1    1
     9     1     2   ar
    10     2     3   ar
    11     3     4   ar
    12     4    17    1
    13    17    19    1
    14    19    20   ar
    15    20    21   ar
    16    21    22   ar
    17    22    23    1
    18    22    24   ar
    19    24    26    1
    20    26    27   ar
    21    27    28   ar
    22    28    29   ar
    23    29    30   ar
    24    30    31   ar
    25    31    32   ar
    26    32    33   ar
    27    33    34   ar
    28    24    25   ar
    29     4     5   ar
    30     5    35    1
    31    35    36    1
    32     5     6   ar
    33    12    13    1
    34    13    14    1
    35    14     9    1
    36     6     1   ar
    37    25    19   ar
    38    34    26   ar
    39    34    29   ar
    40    17    18    1
@<TRIPOS>MOLECULE
*****
 36 40 0 0 0
SMALL
GASTEIGER

@<TRIPOS>ATOM
      1 C         141.1726  143.1070  164.7796 C.ar    1  UNL1        0.0511
      2 C         139.8929  143.8673  164.5944 C.ar    1  UNL1        0.0160
      3 C         139.7217  144.7703  163.4089 C.ar    1  UNL1        0.0190
      4 C         140.8303  144.9132  162.4087 C.ar    1  UNL1        0.0850
      5 C         142.1101  144.1529  162.5939 C.ar    1  UNL1        0.1533
      6 C         142.2813  143.2499  163.7793 C.ar    1  UNL1        0.0527
      7 C         141.8571  139.4949  169.5213 C.2     1  UNL1        0.4051
      8 O         140.7733  139.3993  170.5539 O.2     1  UNL1       -0.2262
      9 N         141.6860  140.3980  168.3358 N.am    1  UNL1       -0.2425
     10 C         142.7698  140.4936  167.3033 C.3     1  UNL1        0.1181
     11 C         142.5986  141.3967  166.1178 C.3     1  UNL1        0.1124
     12 N         141.3437  142.2040  165.9650 N.pl3   1  UNL1       -0.3040
     13 C         140.2600  142.1084  166.9976 C.3     1  UNL1        0.1124
     14 C         140.4311  141.2054  168.1830 C.3     1  UNL1        0.1181
     15 C         143.1615  137.5576  170.6593 C.3     1  UNL1        0.2573
     16 O         143.1120  138.6875  169.6741 O.3     1  UNL1       -0.4304
     17 N         140.6593  145.8162  161.2232 N.pl3   1  UNL1       -0.2802
     18 H         140.5461  146.7852  161.3549 H       1  UNL1        0.1552
     19 C         140.6606  145.2426  159.8372 C.ar    1  UNL1        0.2208
     20 N         141.5781  145.8065  158.7931 N.ar    1  UNL1       -0.2111
     21 C         141.5795  145.2330  157.4070 C.ar    1  UNL1        0.1147
     22 C         140.6634  144.0955  157.0651 C.ar    1  UNL1        0.0960
     23 CL        140.6647  143.5220  155.6791 Cl      1  UNL1       -0.0790
     24 C         139.7459  143.5316  158.1093 C.ar    1  UNL1        0.1138
     25 N         139.7445  144.1052  159.4953 N.ar    1  UNL1       -0.2111
     26 C         138.8297  142.3941  157.7674 C.ar    1  UNL1        0.1031
     27 C         138.8397  141.0336  158.3991 C.ar    1  UNL1        0.1196
     28 N         137.7589  140.2161  157.7560 N.ar    1  UNL1       -0.2248
     29 C         137.0811  141.0713  156.7269 C.ar    1  UNL1        0.1479
     30 C         135.9467  140.7983  155.7842 C.ar    1  UNL1        0.0374
     31 C         135.4741  141.8714  154.8486 C.ar    1  UNL1        0.0046
     32 C         136.1359  143.2175  154.8558 C.ar    1  UNL1        0.0191
     33 C         137.2703  143.4905  155.7984 C.ar    1  UNL1        0.0815
     34 N         137.7429  142.4175  156.7340 N.ar    1  UNL1       -0.2874
     35 O         143.2187  144.2957  161.5936 O.3     1  UNL1       -0.4701
     36 C         144.1550  143.1509  161.3431 C.3     1  UNL1        0.2525
@<TRIPOS>BOND
     1    15    16    1
     2    16     7    1
     3     7     8    2
     4     7     9   am
     5     9    10    1
     6    10    11    1
     7    11    12    1
     8    12     1    1
     9     1     2   ar
    10     2     3   ar
    11     3     4   ar
    12     4    17    1
    13    17    19    1
    14    19    20   ar
    15    20    21   ar
    16    21    22   ar
    17    22    23    1
    18    22    24   ar
    19    24    26    1
    20    26    27   ar
    21    27    28   ar
    22    28    29   ar
    23    29    30   ar
    24    30    31   ar
    25    31    32   ar
    26    32    33   ar
    27    33    34   ar
    28    24    25   ar
    29     4     5   ar
    30     5    35    1
    31    35    36    1
    32     5     6   ar
    33    12    13    1
    34    13    14    1
    35    14     9    1
    36     6     1   ar
    37    25    19   ar
    38    34    26   ar
    39    34    29   ar
    40    17    18    1
@<TRIPOS>MOLECULE
*****
 36 40 0 0 0
SMALL
GASTEIGER

@<TRIPOS>ATOM
      1 C         140.1294  143.5444  157.7719 C.ar    1  UNL1        0.0511
      2 C         141.5916  143.3215  157.5222 C.ar    1  UNL1        0.0160
      3 C         142.5762  143.4775  158.6432 C.ar    1  UNL1        0.0190
      4 C         142.0986  143.8564  160.0137 C.ar    1  UNL1        0.0850
      5 C         140.6363  144.0793  160.2632 C.ar    1  UNL1        0.1533
      6 C         139.6518  143.9233  159.1424 C.ar    1  UNL1        0.0527
      7 C         136.1914  142.9202  153.2883 C.2     1  UNL1        0.4051
      8 O         135.9220  144.0684  152.3614 O.2     1  UNL1       -0.2262
      9 N         137.1759  143.0762  154.4093 N.am    1  UNL1       -0.2425
     10 C         137.4453  141.9281  155.3361 C.3     1  UNL1        0.1181
     11 C         138.4299  142.0842  156.4571 C.3     1  UNL1        0.1124
     12 N         139.1449  143.3884  156.6510 N.pl3   1  UNL1       -0.3040
     13 C         138.8755  144.5366  155.7241 C.3     1  UNL1        0.1124
     14 C         137.8910  144.3805  154.6033 C.3     1  UNL1        0.1181
     15 C         134.2226  141.3262  153.8652 C.3     1  UNL1        0.2573
     16 O         135.4763  141.6160  153.0944 O.3     1  UNL1       -0.4304
     17 N         143.0831  144.0124  161.1345 N.pl3   1  UNL1       -0.2802
     18 H         143.4426  144.9023  161.3537 H       1  UNL1        0.1552
     19 C         143.5197  142.8124  161.9216 C.ar    1  UNL1        0.2208
     20 N         144.9047  142.7549  162.4949 N.ar    1  UNL1       -0.2111
     21 C         145.3414  141.5549  163.2819 C.ar    1  UNL1        0.1147
     22 C         144.3932  140.4125  163.4956 C.ar    1  UNL1        0.0960
     23 CL        144.8299  139.2125  164.2826 Cl      1  UNL1       -0.0790
     24 C         143.0082  140.4700  162.9223 C.ar    1  UNL1        0.1138
     25 N         142.5715  141.6700  162.1353 N.ar    1  UNL1       -0.2111
     26 C         142.0600  139.3276  163.1360 C.ar    1  UNL1        0.1031
     27 C         142.0522  138.0342  162.3761 C.ar    1  UNL1        0.1196
     28 N         140.9405  137.1852  162.9175 N.ar    1  UNL1       -0.2248
     29 C         140.2612  137.9537  164.0121 C.ar    1  UNL1        0.1479
     30 C         139.1020  137.6190  164.9033 C.ar    1  UNL1        0.0374
     31 C         138.6347  138.6083  165.9295 C.ar    1  UNL1        0.0046
     32 C         139.3267  139.9323  166.0644 C.ar    1  UNL1        0.0191
     33 C         140.4859  140.2671  165.1732 C.ar    1  UNL1        0.0815
     34 N         140.9531  139.2778  164.1471 N.ar    1  UNL1       -0.2874
     35 O         140.1587  144.4582  161.6338 O.3     1  UNL1       -0.4701
     36 C         139.9409  145.9014  161.9797 C.3     1  UNL1        0.2525
@<TRIPOS>BOND
     1    15    16    1
     2    16     7    1
     3     7     8    2
     4     7     9   am
     5     9    10    1
     6    10    11    1
     7    11    12    1
     8    12     1    1
     9     1     2   ar
    10     2     3   ar
    11     3     4   ar
    12     4    17    1
    13    17    19    1
    14    19    20   ar
    15    20    21   ar
    16    21    22   ar
    17    22    23    1
    18    22    24   ar
    19    24    26    1
    20    26    27   ar
    21    27    28   ar
    22    28    29   ar
    23    29    30   ar
    24    30    31   ar
    25    31    32   ar
    26    32    33   ar
    27    33    34   ar
    28    24    25   ar
    29     4     5   ar
    30     5    35    1
    31    35    36    1
    32     5     6   ar
    33    12    13    1
    34    13    14    1
    35    14     9    1
    36     6     1   ar
    37    25    19   ar
    38    34    26   ar
    39    34    29   ar
    40    17    18    1
@<TRIPOS>MOLECULE
*****
 36 40 0 0 0
SMALL
GASTEIGER

@<TRIPOS>ATOM
      1 C         142.7226  140.1071  158.0910 C.ar    1  UNL1        0.0511
      2 C         141.8656  141.2834  157.7280 C.ar    1  UNL1        0.0160
      3 C         141.9372  142.5426  158.5402 C.ar    1  UNL1        0.0190
      4 C         142.8658  142.6253  159.7153 C.ar    1  UNL1        0.0850
      5 C         143.7228  141.4489  160.0782 C.ar    1  UNL1        0.1533
      6 C         143.6512  140.1898  159.2661 C.ar    1  UNL1        0.0527
      7 C         142.4359  135.0708  154.8423 C.2     1  UNL1        0.4051
      8 O         142.2579  135.1469  153.3549 O.2     1  UNL1       -0.2262
      9 N         142.5076  136.3299  155.6546 N.am    1  UNL1       -0.2425
     10 C         142.6856  136.2538  157.1420 C.3     1  UNL1        0.1181
     11 C         142.7573  137.5129  157.9541 C.3     1  UNL1        0.1124
     12 N         142.6509  138.8481  157.2788 N.pl3   1  UNL1       -0.3040
     13 C         142.4729  138.9241  155.7914 C.3     1  UNL1        0.1124
     14 C         142.4012  137.6650  154.9793 C.3     1  UNL1        0.1181
     15 C         141.5134  132.6769  155.2525 C.3     1  UNL1        0.2573
     16 O         142.5423  133.7357  155.5177 O.3     1  UNL1       -0.4304
     17 N         142.9374  143.8843  160.5275 N.pl3   1  UNL1       -0.2802
     18 H         143.6253  144.5600  160.3286 H       1  UNL1        0.1552
     19 C         141.9610  144.1139  161.6428 C.ar    1  UNL1        0.2208
     20 N         140.9505  145.2177  161.5396 N.ar    1  UNL1       -0.2111
     21 C         139.9740  145.4473  162.6548 C.ar    1  UNL1        0.1147
     22 C         140.0080  144.5731  163.8733 C.ar    1  UNL1        0.0960
     23 CL        139.0315  144.8027  164.9886 Cl      1  UNL1       -0.0790
     24 C         141.0185  143.4693  163.9765 C.ar    1  UNL1        0.1138
     25 N         141.9950  143.2397  162.8612 N.ar    1  UNL1       -0.2111
     26 C         141.0525  142.5951  165.1949 C.ar    1  UNL1        0.1031
     27 C         142.0670  142.6593  166.2981 C.ar    1  UNL1        0.1196
     28 N         141.7195  141.6072  167.3091 N.ar    1  UNL1       -0.2248
     29 C         140.4904  140.8927  166.8309 C.ar    1  UNL1        0.1479
     30 C         139.6932  139.7650  167.4164 C.ar    1  UNL1        0.0374
     31 C         138.4838  139.2479  166.6952 C.ar    1  UNL1        0.0046
     32 C         138.0716  139.8585  165.3886 C.ar    1  UNL1        0.0191
     33 C         138.8688  140.9862  164.8031 C.ar    1  UNL1        0.0815
     34 N         140.0782  141.5033  165.5242 N.ar    1  UNL1       -0.2874
     35 O         144.6514  141.5316  161.2533 O.3     1  UNL1       -0.4701
     36 C         144.4838  140.5906  162.4093 C.3     1  UNL1        0.2525
@<TRIPOS>BOND
     1    15    16    1
     2    16     7    1
     3     7     8    2
     4     7     9   am
     5     9    10    1
     6    10    11    1
     7    11    12    1
     8    12     1    1
     9     1     2   ar
    10     2     3   ar
    11     3     4   ar
    12     4    17    1
    13    17    19    1
    14    19    20   ar
    15    20    21   ar
    16    21    22   ar
    17    22    23    1
    18    22    24   ar
    19    24    26    1
    20    26    27   ar
    21    27    28   ar
    22    28    29   ar
    23    29    30   ar
    24    30    31   ar
    25    31    32   ar
    26    32    33   ar
    27    33    34   ar
    28    24    25   ar
    29     4     5   ar
    30     5    35    1
    31    35    36    1
    32     5     6   ar
    33    12    13    1
    34    13    14    1
    35    14     9    1
    36     6     1   ar
    37    25    19   ar
    38    34    26   ar
    39    34    29   ar
    40    17    18    1
@<TRIPOS>MOLECULE
*****
 36 40 0 0 0
SMALL
GASTEIGER

@<TRIPOS>ATOM
      1 C         143.0208  142.7168  157.5752 C.ar    1  UNL1        0.0511
      2 C         141.8016  141.9190  157.2188 C.ar    1  UNL1        0.0160
      3 C         140.5142  142.1478  157.9539 C.ar    1  UNL1        0.0190
      4 C         140.4460  143.1743  159.0455 C.ar    1  UNL1        0.0850
      5 C         141.6653  143.9721  159.4019 C.ar    1  UNL1        0.1533
      6 C         142.9526  143.7434  158.6667 C.ar    1  UNL1        0.0527
      7 C         148.1701  141.8016  154.6347 C.2     1  UNL1        0.4051
      8 O         148.1584  141.5892  153.1498 O.2     1  UNL1       -0.2262
      9 N         146.8827  142.0304  155.3699 N.am    1  UNL1       -0.2425
     10 C         146.8946  142.2429  156.8546 C.3     1  UNL1        0.1181
     11 C         145.6071  142.4717  157.5898 C.3     1  UNL1        0.1124
     12 N         144.3081  142.4880  156.8400 N.pl3   1  UNL1       -0.3040
     13 C         144.2963  142.2756  155.3552 C.3     1  UNL1        0.1124
     14 C         145.5837  142.0468  154.6201 C.3     1  UNL1        0.1181
     15 C         150.7670  141.7231  154.6348 C.3     1  UNL1        0.2573
     16 O         149.4692  141.7853  155.3844 O.3     1  UNL1       -0.4304
     17 N         139.1587  143.4031  159.7806 N.pl3   1  UNL1       -0.2802
     18 H         138.5034  144.0517  159.4356 H       1  UNL1        0.1552
     19 C         138.8700  142.6437  161.0416 C.ar    1  UNL1        0.2208
     20 N         137.6631  142.9862  161.8637 N.ar    1  UNL1       -0.2111
     21 C         137.3743  142.2267  163.1246 C.ar    1  UNL1        0.1147
     22 C         138.2925  141.1248  163.5634 C.ar    1  UNL1        0.0960
     23 CL        138.0038  140.3653  164.8243 Cl      1  UNL1       -0.0790
     24 C         139.4995  140.7823  162.7412 C.ar    1  UNL1        0.1138
     25 N         139.7883  141.5417  161.4803 N.ar    1  UNL1       -0.2111
     26 C         140.4178  139.6803  163.1800 C.ar    1  UNL1        0.1031
     27 C         140.6323  138.3763  162.4703 C.ar    1  UNL1        0.1196
     28 N         141.6298  137.5789  163.2571 N.ar    1  UNL1       -0.2248
     29 C         142.0318  138.3901  164.4531 C.ar    1  UNL1        0.1479
     30 C         142.9832  138.1140  165.5794 C.ar    1  UNL1        0.0374
     31 C         143.1856  139.1367  166.6580 C.ar    1  UNL1        0.0046
     32 C         142.4365  140.4353  166.6103 C.ar    1  UNL1        0.0191
     33 C         141.4851  140.7115  165.4840 C.ar    1  UNL1        0.0815
     34 N         141.2827  139.6889  164.4054 N.ar    1  UNL1       -0.2874
     35 O         141.5971  144.9987  160.4934 O.3     1  UNL1       -0.4701
     36 C         141.8344  144.5951  161.9185 C.3     1  UNL1        0.2525
@<TRIPOS>BOND
     1    15    16    1
     2    16     7    1
     3     7     8    2
     4     7     9   am
     5     9    10    1
     6    10    11    1
     7    11    12    1
     8    12     1    1
     9     1     2   ar
    10     2     3   ar
    11     3     4   ar
    12     4    17    1
    13    17    19    1
    14    19    20   ar
    15    20    21   ar
    16    21    22   ar
    17    22    23    1
    18    22    24   ar
    19    24    26    1
    20    26    27   ar
    21    27    28   ar
    22    28    29   ar
    23    29    30   ar
    24    30    31   ar
    25    31    32   ar
    26    32    33   ar
    27    33    34   ar
    28    24    25   ar
    29     4     5   ar
    30     5    35    1
    31    35    36    1
    32     5     6   ar
    33    12    13    1
    34    13    14    1
    35    14     9    1
    36     6     1   ar
    37    25    19   ar
    38    34    26   ar
    39    34    29   ar
    40    17    18    1
