@<TRIPOS>MOLECULE
*****
 29 31 0 0 0
SMALL
GASTEIGER

@<TRIPOS>ATOM
      1 C         141.5609  138.2657  158.1553 C.ar    1  UNL1        0.1535
      2 C         140.0802  138.4083  158.3485 C.ar    1  UNL1        0.0377
      3 C         139.5077  138.4751  159.7333 C.ar    1  UNL1        0.0239
      4 C         140.4157  138.3994  160.9248 C.ar    1  UNL1        0.1059
      5 N         141.8963  138.2568  160.7315 N.ar    1  UNL1       -0.1467
      6 N         142.4689  138.1900  159.3468 N.ar    1  UNL1       -0.1329
      7 C         139.8431  138.4662  162.3096 C.ar    1  UNL1        0.0531
      8 C         138.7925  139.4851  162.6385 C.ar    1  UNL1        0.0053
      9 C         138.2199  139.5519  164.0233 C.ar    1  UNL1        0.0105
     10 C         138.6978  138.5998  165.0792 C.ar    1  UNL1        0.0715
     11 C         139.7484  137.5808  164.7504 C.ar    1  UNL1        0.0469
     12 C         140.3210  137.5141  163.3656 C.ar    1  UNL1        0.1358
     13 O         141.3716  136.4951  163.0367 O.3     1  UNL1       -0.5054
     14 H         141.6702  135.9004  163.6963 H       1  UNL1        0.2922
     15 C         138.1252  138.6666  166.4640 C.1     1  UNL1        0.1005
     16 N         137.5526  138.7333  167.8488 N.1     1  UNL1       -0.1908
     17 C         142.5629  139.4566  156.0749 C.3     1  UNL1        0.1135
     18 N         142.1335  138.1989  156.7704 N.pl3   1  UNL1       -0.2916
     19 C         142.2767  136.8744  156.0812 C.3     1  UNL1        0.0768
     20 C         141.8279  136.7167  154.6586 C.3     1  UNL1        0.0342
     21 C         141.9711  135.3922  153.9694 C.3     1  UNL1        0.0435
     22 C         141.9002  134.3468  152.8960 C.3     1  UNL1        0.0158
     23 C         141.3545  136.1961  152.8633 C.3     1  UNL1        0.0158
     24 N         142.5631  134.2253  154.7027 N.3     1  UNL1       -0.3015
     25 C         143.0119  134.3828  156.1253 C.3     1  UNL1        0.0435
     26 C         143.5788  134.0390  157.4708 C.3     1  UNL1        0.0158
     27 C         143.3520  132.9389  155.9034 C.3     1  UNL1        0.0158
     28 C         142.8687  135.7074  156.8146 C.3     1  UNL1        0.0342
     29 H         143.3783  133.9245  154.1684 H       1  UNL1        0.1231
@<TRIPOS>BOND
     1    17    18    1
     2    18     1    1
     3     1     2   ar
     4     2     3   ar
     5     3     4   ar
     6     4     7    1
     7     7     8   ar
     8     8     9   ar
     9     9    10   ar
    10    10    15    1
    11    15    16    3
    12    10    11   ar
    13    11    12   ar
    14    12    13    1
    15     4     5   ar
    16     5     6   ar
    17    18    19    1
    18    19    20    1
    19    20    21    1
    20    21    22    1
    21    21    23    1
    22    21    24    1
    23    24    25    1
    24    25    26    1
    25    25    27    1
    26    25    28    1
    27     6     1   ar
    28    28    19    1
    29    12     7   ar
    30    13    14    1
    31    24    29    1
@<TRIPOS>MOLECULE
*****
 29 31 0 0 0
SMALL
GASTEIGER

@<TRIPOS>ATOM
      1 C         141.7296  138.2901  158.2775 C.ar    1  UNL1        0.1535
      2 C         140.2482  138.4660  158.4343 C.ar    1  UNL1        0.0377
      3 C         139.6410  138.5257  159.8046 C.ar    1  UNL1        0.0239
      4 C         140.5152  138.4095  161.0180 C.ar    1  UNL1        0.1059
      5 N         141.9965  138.2336  160.8612 N.ar    1  UNL1       -0.1467
      6 N         142.6037  138.1739  159.4909 N.ar    1  UNL1       -0.1329
      7 C         139.9079  138.4692  162.3884 C.ar    1  UNL1        0.0531
      8 C         138.8705  139.5054  162.7045 C.ar    1  UNL1        0.0053
      9 C         138.2632  139.5651  164.0748 C.ar    1  UNL1        0.0105
     10 C         138.6934  138.5886  165.1290 C.ar    1  UNL1        0.0715
     11 C         139.7309  137.5523  164.8128 C.ar    1  UNL1        0.0469
     12 C         140.3381  137.4926  163.4425 C.ar    1  UNL1        0.1358
     13 O         141.3755  136.4564  163.1264 O.3     1  UNL1       -0.5054
     14 H         141.6443  135.8463  163.7849 H       1  UNL1        0.2922
     15 C         138.0862  138.6482  166.4992 C.1     1  UNL1        0.1005
     16 N         137.4790  138.7079  167.8695 N.1     1  UNL1       -0.1908
     17 C         142.8569  139.4807  156.2622 C.3     1  UNL1        0.1135
     18 N         142.3369  138.2304  156.9072 N.pl3   1  UNL1       -0.2916
     19 C         142.4240  136.9202  156.1819 C.3     1  UNL1        0.0768
     20 C         142.9472  135.7051  156.8887 C.3     1  UNL1        0.0342
     21 C         143.0344  134.3950  156.1635 C.3     1  UNL1        0.0435
     22 C         143.3057  132.9427  155.9043 C.3     1  UNL1        0.0158
     23 C         143.5646  133.9856  157.5056 C.3     1  UNL1        0.0158
     24 N         142.5984  134.3000  154.7314 N.3     1  UNL1       -0.3015
     25 C         142.0752  135.5152  154.0245 C.3     1  UNL1        0.0435
     26 C         141.5146  136.3797  152.9343 C.3     1  UNL1        0.0158
     27 C         141.9677  134.5053  152.9207 C.3     1  UNL1        0.0158
     28 C         141.9880  136.8253  154.7498 C.3     1  UNL1        0.0342
     29 H         141.8601  133.5971  154.6944 H       1  UNL1        0.1231
@<TRIPOS>BOND
     1    17    18    1
     2    18     1    1
     3     1     2   ar
     4     2     3   ar
     5     3     4   ar
     6     4     7    1
     7     7     8   ar
     8     8     9   ar
     9     9    10   ar
    10    10    15    1
    11    15    16    3
    12    10    11   ar
    13    11    12   ar
    14    12    13    1
    15     4     5   ar
    16     5     6   ar
    17    18    19    1
    18    19    20    1
    19    20    21    1
    20    21    22    1
    21    21    23    1
    22    21    24    1
    23    24    25    1
    24    25    26    1
    25    25    27    1
    26    25    28    1
    27     6     1   ar
    28    28    19    1
    29    12     7   ar
    30    13    14    1
    31    24    29    1
@<TRIPOS>MOLECULE
*****
 29 31 0 0 0
SMALL
GASTEIGER

@<TRIPOS>ATOM
      1 C         141.6003  141.3511  163.9870 C.ar    1  UNL1        0.1535
      2 C         141.8080  140.6199  162.6939 C.ar    1  UNL1        0.0377
      3 C         141.4630  141.2831  161.3936 C.ar    1  UNL1        0.0239
      4 C         140.9104  142.6776  161.3863 C.ar    1  UNL1        0.1059
      5 N         140.7028  143.4089  162.6794 N.ar    1  UNL1       -0.1467
      6 N         141.0477  142.7456  163.9798 N.ar    1  UNL1       -0.1329
      7 C         140.5654  143.3409  160.0858 C.ar    1  UNL1        0.0531
      8 C         139.7512  142.6066  159.0622 C.ar    1  UNL1        0.0053
      9 C         139.4062  143.2699  157.7618 C.ar    1  UNL1        0.0105
     10 C         139.8755  144.6674  157.4849 C.ar    1  UNL1        0.0715
     11 C         140.6899  145.4017  158.5086 C.ar    1  UNL1        0.0469
     12 C         141.0348  144.7384  159.8090 C.ar    1  UNL1        0.1358
     13 O         141.8491  145.4727  160.8327 O.3     1  UNL1       -0.5054
     14 H         142.1423  146.3457  160.6598 H       1  UNL1        0.2922
     15 C         139.5306  145.3307  156.1846 C.1     1  UNL1        0.1005
     16 N         139.1857  145.9940  154.8842 N.1     1  UNL1       -0.1908
     17 C         143.3788  140.4099  165.6306 C.3     1  UNL1        0.1135
     18 N         141.9453  140.6878  165.2875 N.pl3   1  UNL1       -0.2916
     19 C         140.8567  140.3026  166.2449 C.3     1  UNL1        0.0768
     20 C         139.7794  139.3525  165.8127 C.3     1  UNL1        0.0342
     21 C         138.6908  138.9673  166.7700 C.3     1  UNL1        0.0435
     22 C         137.4574  138.3061  167.3099 C.3     1  UNL1        0.0158
     23 C         138.2738  138.1728  165.5680 C.3     1  UNL1        0.0158
     24 N         138.6795  139.5320  168.1596 N.3     1  UNL1       -0.3015
     25 C         139.7568  140.4822  168.5918 C.3     1  UNL1        0.0435
     26 C         140.5519  141.4104  169.4613 C.3     1  UNL1        0.0158
     27 C         138.9443  140.4193  169.8511 C.3     1  UNL1        0.0158
     28 C         140.8454  140.8674  167.6345 C.3     1  UNL1        0.0342
     29 H         138.7120  138.7389  168.8001 H       1  UNL1        0.1231
@<TRIPOS>BOND
     1    17    18    1
     2    18     1    1
     3     1     2   ar
     4     2     3   ar
     5     3     4   ar
     6     4     7    1
     7     7     8   ar
     8     8     9   ar
     9     9    10   ar
    10    10    15    1
    11    15    16    3
    12    10    11   ar
    13    11    12   ar
    14    12    13    1
    15     4     5   ar
    16     5     6   ar
    17    18    19    1
    18    19    20    1
    19    20    21    1
    20    21    22    1
    21    21    23    1
    22    21    24    1
    23    24    25    1
    24    25    26    1
    25    25    27    1
    26    25    28    1
    27     6     1   ar
    28    28    19    1
    29    12     7   ar
    30    13    14    1
    31    24    29    1
@<TRIPOS>MOLECULE
*****
 29 31 0 0 0
SMALL
GASTEIGER

@<TRIPOS>ATOM
      1 C         142.1539  140.7990  164.5619 C.ar    1  UNL1        0.1535
      2 C         142.2955  140.1763  163.2046 C.ar    1  UNL1        0.0377
      3 C         141.9287  140.9588  161.9786 C.ar    1  UNL1        0.0239
      4 C         141.4204  142.3639  162.1099 C.ar    1  UNL1        0.1059
      5 N         141.2788  142.9866  163.4671 N.ar    1  UNL1       -0.1467
      6 N         141.6456  142.2041  164.6932 N.ar    1  UNL1       -0.1329
      7 C         141.0536  143.1464  160.8838 C.ar    1  UNL1        0.0531
      8 C         140.1182  142.5571  159.8700 C.ar    1  UNL1        0.0053
      9 C         139.7514  143.3396  158.6439 C.ar    1  UNL1        0.0105
     10 C         140.3200  144.7113  158.4316 C.ar    1  UNL1        0.0715
     11 C         141.2555  145.3006  159.4455 C.ar    1  UNL1        0.0469
     12 C         141.6222  144.5181  160.6715 C.ar    1  UNL1        0.1358
     13 O         142.5576  145.1073  161.6854 O.3     1  UNL1       -0.5054
     14 H         142.9128  145.9642  161.5529 H       1  UNL1        0.2922
     15 C         139.9533  145.4938  157.2056 C.1     1  UNL1        0.1005
     16 N         139.5866  146.2763  155.9796 N.1     1  UNL1       -0.1908
     17 C         143.4693  138.8593  165.6833 C.3     1  UNL1        0.1135
     18 N         142.5207  140.0165  165.7880 N.pl3   1  UNL1       -0.2916
     19 C         141.9389  140.3913  167.1188 C.3     1  UNL1        0.0768
     20 C         142.7630  141.1614  168.1076 C.3     1  UNL1        0.0342
     21 C         142.1811  141.5362  169.4383 C.3     1  UNL1        0.0435
     22 C         142.0748  142.1186  170.8165 C.3     1  UNL1        0.0158
     23 C         143.5502  142.1338  169.5750 C.3     1  UNL1        0.0158
     24 N         140.7752  141.1409  169.7804 N.3     1  UNL1       -0.3015
     25 C         139.9510  140.3707  168.7916 C.3     1  UNL1        0.0435
     26 C         138.7841  139.6430  168.1927 C.3     1  UNL1        0.0158
     27 C         138.9639  140.4928  169.9144 C.3     1  UNL1        0.0158
     28 C         140.5328  139.9959  167.4608 C.3     1  UNL1        0.0342
     29 H         140.2671  142.0027  169.9793 H       1  UNL1        0.1231
@<TRIPOS>BOND
     1    17    18    1
     2    18     1    1
     3     1     2   ar
     4     2     3   ar
     5     3     4   ar
     6     4     7    1
     7     7     8   ar
     8     8     9   ar
     9     9    10   ar
    10    10    15    1
    11    15    16    3
    12    10    11   ar
    13    11    12   ar
    14    12    13    1
    15     4     5   ar
    16     5     6   ar
    17    18    19    1
    18    19    20    1
    19    20    21    1
    20    21    22    1
    21    21    23    1
    22    21    24    1
    23    24    25    1
    24    25    26    1
    25    25    27    1
    26    25    28    1
    27     6     1   ar
    28    28    19    1
    29    12     7   ar
    30    13    14    1
    31    24    29    1
@<TRIPOS>MOLECULE
*****
 29 31 0 0 0
SMALL
GASTEIGER

@<TRIPOS>ATOM
      1 C         141.4779  141.8576  164.2589 C.ar    1  UNL1        0.1535
      2 C         142.0764  141.2014  163.0502 C.ar    1  UNL1        0.0377
      3 C         141.7447  141.7105  161.6788 C.ar    1  UNL1        0.0239
      4 C         140.8144  142.8759  161.5162 C.ar    1  UNL1        0.1059
      5 N         140.2158  143.5321  162.7249 N.ar    1  UNL1       -0.1467
      6 N         140.5476  143.0230  164.0962 N.ar    1  UNL1       -0.1329
      7 C         140.4826  143.3850  160.1447 C.ar    1  UNL1        0.0531
      8 C         140.0347  142.4300  159.0782 C.ar    1  UNL1        0.0053
      9 C         139.7030  142.9392  157.7068 C.ar    1  UNL1        0.0105
     10 C         139.8192  144.4032  157.4019 C.ar    1  UNL1        0.0715
     11 C         140.2672  145.3582  158.4684 C.ar    1  UNL1        0.0469
     12 C         140.5989  144.8491  159.8398 C.ar    1  UNL1        0.1358
     13 O         141.0468  145.8040  160.9063 O.3     1  UNL1       -0.5054
     14 H         141.1194  146.7186  160.7159 H       1  UNL1        0.2922
     15 C         139.4875  144.9124  156.0305 C.1     1  UNL1        0.1005
     16 N         139.1558  145.4215  154.6591 N.1     1  UNL1       -0.1908
     17 C         143.2133  141.4505  166.1490 C.3     1  UNL1        0.1135
     18 N         141.8096  141.3485  165.6304 N.pl3   1  UNL1       -0.2916
     19 C         140.7375  140.7374  166.4831 C.3     1  UNL1        0.0768
     20 C         140.6118  141.1297  167.9254 C.3     1  UNL1        0.0342
     21 C         139.5397  140.5186  168.7782 C.3     1  UNL1        0.0435
     22 C         138.6943  140.2200  169.9807 C.3     1  UNL1        0.0158
     23 C         140.1925  141.4183  169.7854 C.3     1  UNL1        0.0158
     24 N         138.5933  139.5153  168.1886 N.3     1  UNL1       -0.3015
     25 C         138.7190  139.1229  166.7463 C.3     1  UNL1        0.0435
     26 C         138.4386  138.4355  165.4429 C.3     1  UNL1        0.0158
     27 C         137.5496  138.2731  167.1464 C.3     1  UNL1        0.0158
     28 C         139.7911  139.7340  165.8935 C.3     1  UNL1        0.0342
     29 H         137.6527  139.8904  168.3109 H       1  UNL1        0.1231
@<TRIPOS>BOND
     1    17    18    1
     2    18     1    1
     3     1     2   ar
     4     2     3   ar
     5     3     4   ar
     6     4     7    1
     7     7     8   ar
     8     8     9   ar
     9     9    10   ar
    10    10    15    1
    11    15    16    3
    12    10    11   ar
    13    11    12   ar
    14    12    13    1
    15     4     5   ar
    16     5     6   ar
    17    18    19    1
    18    19    20    1
    19    20    21    1
    20    21    22    1
    21    21    23    1
    22    21    24    1
    23    24    25    1
    24    25    26    1
    25    25    27    1
    26    25    28    1
    27     6     1   ar
    28    28    19    1
    29    12     7   ar
    30    13    14    1
    31    24    29    1
@<TRIPOS>MOLECULE
*****
 29 31 0 0 0
SMALL
GASTEIGER

@<TRIPOS>ATOM
      1 C         139.4149  138.8861  164.7561 C.ar    1  UNL1        0.1535
      2 C         140.2186  137.6884  164.3445 C.ar    1  UNL1        0.0377
      3 C         140.6635  137.5373  162.9200 C.ar    1  UNL1        0.0239
      4 C         140.3047  138.5839  161.9071 C.ar    1  UNL1        0.1059
      5 N         139.5010  139.7816  162.3187 N.ar    1  UNL1       -0.1467
      6 N         139.0561  139.9327  163.7432 N.ar    1  UNL1       -0.1329
      7 C         140.7496  138.4327  160.4825 C.ar    1  UNL1        0.0531
      8 C         142.1551  138.0073  160.1769 C.ar    1  UNL1        0.0053
      9 C         142.6000  137.8561  158.7524 C.ar    1  UNL1        0.0105
     10 C         141.6393  138.1303  157.6335 C.ar    1  UNL1        0.0715
     11 C         140.2337  138.5557  157.9392 C.ar    1  UNL1        0.0469
     12 C         139.7889  138.7069  159.3637 C.ar    1  UNL1        0.1358
     13 O         138.3833  139.1323  159.6694 O.3     1  UNL1       -0.5054
     14 H         137.7831  139.3036  158.9705 H       1  UNL1        0.2922
     15 C         142.0841  137.9791  156.2090 C.1     1  UNL1        0.1005
     16 N         142.5290  137.8280  154.7845 N.1     1  UNL1       -0.1908
     17 C         137.7250  138.3481  166.6547 C.3     1  UNL1        0.1135
     18 N         138.9700  139.0373  166.1806 N.pl3   1  UNL1       -0.2916
     19 C         139.7702  139.8778  167.1311 C.3     1  UNL1        0.0768
     20 C         139.2599  140.1337  168.5181 C.3     1  UNL1        0.0342
     21 C         140.0601  140.9742  169.4685 C.3     1  UNL1        0.0435
     22 C         140.4524  141.6990  170.7217 C.3     1  UNL1        0.0158
     23 C         138.8857  140.6413  170.3404 C.3     1  UNL1        0.0158
     24 N         141.3706  141.5587  169.0319 N.3     1  UNL1       -0.3015
     25 C         141.8810  141.3028  167.6448 C.3     1  UNL1        0.0435
     26 C         142.7774  141.3437  166.4428 C.3     1  UNL1        0.0158
     27 C         142.9925  142.1575  168.1778 C.3     1  UNL1        0.0158
     28 C         141.0809  140.4624  166.6944 C.3     1  UNL1        0.0342
     29 H         142.0791  141.2070  169.6759 H       1  UNL1        0.1231
@<TRIPOS>BOND
     1    17    18    1
     2    18     1    1
     3     1     2   ar
     4     2     3   ar
     5     3     4   ar
     6     4     7    1
     7     7     8   ar
     8     8     9   ar
     9     9    10   ar
    10    10    15    1
    11    15    16    3
    12    10    11   ar
    13    11    12   ar
    14    12    13    1
    15     4     5   ar
    16     5     6   ar
    17    18    19    1
    18    19    20    1
    19    20    21    1
    20    21    22    1
    21    21    23    1
    22    21    24    1
    23    24    25    1
    24    25    26    1
    25    25    27    1
    26    25    28    1
    27     6     1   ar
    28    28    19    1
    29    12     7   ar
    30    13    14    1
    31    24    29    1
@<TRIPOS>MOLECULE
*****
 29 31 0 0 0
SMALL
GASTEIGER

@<TRIPOS>ATOM
      1 C         142.3805  138.5321  158.2163 C.ar    1  UNL1        0.1535
      2 C         141.1498  138.3862  159.0613 C.ar    1  UNL1        0.0377
      3 C         141.2562  138.4386  160.5565 C.ar    1  UNL1        0.0239
      4 C         142.5933  138.6369  161.2068 C.ar    1  UNL1        0.1059
      5 N         143.8240  138.7828  160.3618 N.ar    1  UNL1       -0.1467
      6 N         143.7176  138.7304  158.8666 N.ar    1  UNL1       -0.1329
      7 C         142.6996  138.6893  162.7022 C.ar    1  UNL1        0.0531
      8 C         141.6834  137.9851  163.5515 C.ar    1  UNL1        0.0053
      9 C         141.7897  138.0375  165.0468 C.ar    1  UNL1        0.0105
     10 C         142.9124  138.7941  165.6928 C.ar    1  UNL1        0.0715
     11 C         143.9286  139.4983  164.8434 C.ar    1  UNL1        0.0469
     12 C         143.8222  139.4459  163.3482 C.ar    1  UNL1        0.1358
     13 O         144.8385  140.1501  162.4988 O.3     1  UNL1       -0.5054
     14 H         145.5398  140.6227  162.9023 H       1  UNL1        0.2922
     15 C         143.0187  138.8465  167.1881 C.1     1  UNL1        0.1005
     16 N         143.1251  138.8990  168.6833 N.1     1  UNL1       -0.1908
     17 C         142.0912  139.7455  155.9372 C.3     1  UNL1        0.1135
     18 N         142.2742  138.4797  156.7209 N.pl3   1  UNL1       -0.2916
     19 C         142.3508  137.1615  156.0093 C.3     1  UNL1        0.0768
     20 C         141.9394  137.0608  154.5704 C.3     1  UNL1        0.0342
     21 C         142.0160  135.7426  153.8588 C.3     1  UNL1        0.0435
     22 C         141.9104  134.7245  152.7624 C.3     1  UNL1        0.0158
     23 C         141.4912  136.6067  152.7507 C.3     1  UNL1        0.0158
     24 N         142.5042  134.5250  154.5861 N.3     1  UNL1       -0.3015
     25 C         142.9157  134.6255  156.0251 C.3     1  UNL1        0.0435
     26 C         143.4139  134.2194  157.3804 C.3     1  UNL1        0.0158
     27 C         143.1653  133.1663  155.7842 C.3     1  UNL1        0.0158
     28 C         142.8390  135.9438  156.7367 C.3     1  UNL1        0.0342
     29 H         143.3144  134.1797  154.0716 H       1  UNL1        0.1231
@<TRIPOS>BOND
     1    17    18    1
     2    18     1    1
     3     1     2   ar
     4     2     3   ar
     5     3     4   ar
     6     4     7    1
     7     7     8   ar
     8     8     9   ar
     9     9    10   ar
    10    10    15    1
    11    15    16    3
    12    10    11   ar
    13    11    12   ar
    14    12    13    1
    15     4     5   ar
    16     5     6   ar
    17    18    19    1
    18    19    20    1
    19    20    21    1
    20    21    22    1
    21    21    23    1
    22    21    24    1
    23    24    25    1
    24    25    26    1
    25    25    27    1
    26    25    28    1
    27     6     1   ar
    28    28    19    1
    29    12     7   ar
    30    13    14    1
    31    24    29    1
@<TRIPOS>MOLECULE
*****
 29 31 0 0 0
SMALL
GASTEIGER

@<TRIPOS>ATOM
      1 C         138.8186  141.3497  161.6398 C.ar    1  UNL1        0.1535
      2 C         137.9678  142.2075  162.5287 C.ar    1  UNL1        0.0377
      3 C         138.2619  142.2886  163.9973 C.ar    1  UNL1        0.0239
      4 C         139.4068  141.5120  164.5770 C.ar    1  UNL1        0.1059
      5 N         140.2576  140.6542  163.6881 N.ar    1  UNL1       -0.1467
      6 N         139.9635  140.5730  162.2195 N.ar    1  UNL1       -0.1329
      7 C         139.7008  141.5932  166.0457 C.ar    1  UNL1        0.0531
      8 C         140.1614  142.8875  166.6479 C.ar    1  UNL1        0.0053
      9 C         140.4555  142.9687  168.1167 C.ar    1  UNL1        0.0105
     10 C         140.2889  141.7556  168.9831 C.ar    1  UNL1        0.0715
     11 C         139.8283  140.4613  168.3808 C.ar    1  UNL1        0.0469
     12 C         139.5343  140.3801  166.9121 C.ar    1  UNL1        0.1358
     13 O         139.0737  139.0858  166.3098 O.3     1  UNL1       -0.5054
     14 H         138.9696  138.3280  166.8510 H       1  UNL1        0.2922
     15 C         140.5830  141.8367  170.4517 C.1     1  UNL1        0.1005
     16 N         140.8770  141.9179  171.9203 N.1     1  UNL1       -0.1908
     17 C         137.7750  140.0918  159.6202 C.3     1  UNL1        0.1135
     18 N         138.5245  141.2685  160.1711 N.pl3   1  UNL1       -0.2916
     19 C         138.9800  142.3640  159.2533 C.3     1  UNL1        0.0768
     20 C         138.3946  142.4816  157.8774 C.3     1  UNL1        0.0342
     21 C         138.8501  143.5772  156.9596 C.3     1  UNL1        0.0435
     22 C         138.9570  144.4368  155.7350 C.3     1  UNL1        0.0158
     23 C         137.8462  142.8978  156.0761 C.3     1  UNL1        0.0158
     24 N         139.8911  144.5551  157.4178 N.3     1  UNL1       -0.3015
     25 C         140.4766  144.4375  158.7939 C.3     1  UNL1        0.0435
     26 C         141.3223  144.7364  159.9961 C.3     1  UNL1        0.0158
     27 C         141.2258  145.6368  158.2936 C.3     1  UNL1        0.0158
     28 C         140.0211  143.3419  159.7116 C.3     1  UNL1        0.0342
     29 H         139.4718  145.4828  157.3545 H       1  UNL1        0.1231
@<TRIPOS>BOND
     1    17    18    1
     2    18     1    1
     3     1     2   ar
     4     2     3   ar
     5     3     4   ar
     6     4     7    1
     7     7     8   ar
     8     8     9   ar
     9     9    10   ar
    10    10    15    1
    11    15    16    3
    12    10    11   ar
    13    11    12   ar
    14    12    13    1
    15     4     5   ar
    16     5     6   ar
    17    18    19    1
    18    19    20    1
    19    20    21    1
    20    21    22    1
    21    21    23    1
    22    21    24    1
    23    24    25    1
    24    25    26    1
    25    25    27    1
    26    25    28    1
    27     6     1   ar
    28    28    19    1
    29    12     7   ar
    30    13    14    1
    31    24    29    1
@<TRIPOS>MOLECULE
*****
 29 31 0 0 0
SMALL
GASTEIGER

@<TRIPOS>ATOM
      1 C         139.4745  141.1982  164.5453 C.ar    1  UNL1        0.1535
      2 C         138.6505  142.4206  164.2685 C.ar    1  UNL1        0.0377
      3 C         138.8411  143.1795  162.9888 C.ar    1  UNL1        0.0239
      4 C         139.8556  142.7161  161.9859 C.ar    1  UNL1        0.1059
      5 N         140.6797  141.4936  162.2627 N.ar    1  UNL1       -0.1467
      6 N         140.4891  140.7347  163.5424 N.ar    1  UNL1       -0.1329
      7 C         140.0462  143.4751  160.7062 C.ar    1  UNL1        0.0531
      8 C         139.3632  143.0150  159.4525 C.ar    1  UNL1        0.0053
      9 C         139.5538  143.7740  158.1728 C.ar    1  UNL1        0.0105
     10 C         140.4273  144.9931  158.1468 C.ar    1  UNL1        0.0715
     11 C         141.1103  145.4532  159.4006 C.ar    1  UNL1        0.0469
     12 C         140.9197  144.6942  160.6802 C.ar    1  UNL1        0.1358
     13 O         141.6027  145.1543  161.9340 O.3     1  UNL1       -0.5054
     14 H         142.1484  145.9158  161.9178 H       1  UNL1        0.2922
     15 C         140.6179  145.7521  156.8672 C.1     1  UNL1        0.1005
     16 N         140.8085  146.5111  155.5875 N.1     1  UNL1       -0.1908
     17 C         138.2707  139.3356  165.8988 C.3     1  UNL1        0.1135
     18 N         139.2839  140.4392  165.8251 N.pl3   1  UNL1       -0.2916
     19 C         140.1067  140.7838  167.0310 C.3     1  UNL1        0.0768
     20 C         141.4340  141.4622  166.8645 C.3     1  UNL1        0.0342
     21 C         142.2568  141.8068  168.0704 C.3     1  UNL1        0.0435
     22 C         143.3916  142.3305  168.8997 C.3     1  UNL1        0.0158
     23 C         143.1556  142.3225  166.9859 C.3     1  UNL1        0.0158
     24 N         141.7521  141.4730  169.4430 N.3     1  UNL1       -0.3015
     25 C         140.4247  140.7945  169.6096 C.3     1  UNL1        0.0435
     26 C         139.2401  140.1591  170.2752 C.3     1  UNL1        0.0158
     27 C         140.8360  140.9185  171.0467 C.3     1  UNL1        0.0158
     28 C         139.6020  140.4499  168.4036 C.3     1  UNL1        0.0342
     29 H         141.7009  142.3510  169.9595 H       1  UNL1        0.1231
@<TRIPOS>BOND
     1    17    18    1
     2    18     1    1
     3     1     2   ar
     4     2     3   ar
     5     3     4   ar
     6     4     7    1
     7     7     8   ar
     8     8     9   ar
     9     9    10   ar
    10    10    15    1
    11    15    16    3
    12    10    11   ar
    13    11    12   ar
    14    12    13    1
    15     4     5   ar
    16     5     6   ar
    17    18    19    1
    18    19    20    1
    19    20    21    1
    20    21    22    1
    21    21    23    1
    22    21    24    1
    23    24    25    1
    24    25    26    1
    25    25    27    1
    26    25    28    1
    27     6     1   ar
    28    28    19    1
    29    12     7   ar
    30    13    14    1
    31    24    29    1
