@<TRIPOS>MOLECULE
*****
 45 48 0 0 0
SMALL
GASTEIGER

@<TRIPOS>ATOM
      1 N         140.2690  140.3702  160.2153 N.am    1  UNL1       -0.2797
      2 C         139.6204  141.7218  160.2675 C.3     1  UNL1        0.0956
      3 C         139.4161  142.0826  161.7090 C.3     1  UNL1        0.0505
      4 C         139.9384  140.9540  162.5478 C.3     1  UNL1        0.1507
      5 C         140.4655  139.8957  161.6246 C.2     1  UNL1        0.2435
      6 O         141.0810  138.5919  162.0382 O.2     1  UNL1       -0.2731
      7 C         141.4225  138.1320  156.4857 C.3     1  UNL1        0.0577
      8 C         140.1632  137.7724  157.2170 C.3     1  UNL1        0.0177
      9 C         139.7787  138.5184  158.4602 C.3     1  UNL1        0.0212
     10 C         140.6535  139.6241  158.9721 C.3     1  UNL1        0.0771
     11 C         141.9127  139.9838  158.2408 C.3     1  UNL1        0.0436
     12 C         142.2972  139.2377  156.9976 C.3     1  UNL1        0.0194
     13 N         141.8070  137.3860  155.2425 N.3     1  UNL1       -0.2741
     14 C         141.4183  137.9211  153.8962 C.3     1  UNL1        0.0896
     15 C         144.0632  136.1396  155.5676 C.3     1  UNL1        0.0173
     16 C         142.5802  136.1048  155.3456 C.3     1  UNL1        0.0576
     17 C         141.8703  134.7887  155.2266 C.3     1  UNL1        0.0173
     18 C         142.7876  141.0896  158.7528 C.3     1  UNL1        0.1576
     19 S         143.4729  140.9504  160.0797 S.O2    1  UNL1        0.0087
     20 O         142.9983  142.3192  160.4684 O.2     1  UNL1       -0.1686
     21 O         143.9476  139.5816  159.6911 O.2     1  UNL1       -0.1686
     22 C         144.1583  140.8113  161.4068 C.ar    1  UNL1        0.1057
     23 C         144.9666  141.9492  161.9564 C.ar    1  UNL1        0.0183
     24 C         145.6519  141.8101  163.2834 C.ar    1  UNL1        0.0013
     25 C         145.5289  140.5333  164.0608 C.ar    1  UNL1        0.0001
     26 C         144.7206  139.3954  163.5112 C.ar    1  UNL1        0.0013
     27 C         144.0353  139.5345  162.1842 C.ar    1  UNL1        0.0183
     28 N         139.9343  140.8942  164.0466 N.am    1  UNL1       -0.2948
     29 C         141.0988  141.4353  164.8220 C.2     1  UNL1        0.2461
     30 O         142.2674  142.0363  164.0986 O.2     1  UNL1       -0.2701
     31 H         139.1674  140.4998  164.5214 H       1  UNL1        0.1501
     32 C         141.0947  141.3755  166.3207 C.ar    1  UNL1        0.0533
     33 C         139.9077  140.8136  167.0456 C.ar    1  UNL1        0.0083
     34 C         139.9035  140.7538  168.5445 C.ar    1  UNL1        0.0715
     35 C         141.0863  141.2558  169.3184 C.ar    1  UNL1        0.0077
     36 C         142.2733  141.8176  168.5935 C.ar    1  UNL1        0.0715
     37 C         142.2774  141.8775  167.0947 C.ar    1  UNL1        0.0083
     38 C         138.7165  140.1919  169.2693 C.3     1  UNL1        0.4186
     39 F         137.5295  139.6300  169.9942 F       1  UNL1       -0.1659
     40 F         138.4271  139.2964  168.1013 F       1  UNL1       -0.1659
     41 F         139.0059  141.0874  170.4373 F       1  UNL1       -0.1659
     42 C         143.4560  142.3196  169.3675 C.3     1  UNL1        0.4186
     43 F         144.6388  142.8216  170.1414 F       1  UNL1       -0.1659
     44 F         144.0964  142.7787  168.0911 F       1  UNL1       -0.1659
     45 F         142.8157  141.8606  170.6439 F       1  UNL1       -0.1659
@<TRIPOS>BOND
     1    15    16    1
     2    16    17    1
     3    16    13    1
     4    13    14    1
     5     7    13    1
     6     7     8    1
     7     8     9    1
     8     9    10    1
     9    10     1    1
    10     1     2    1
    11     2     3    1
    12     3     4    1
    13     4    28    1
    14    28    29   am
    15    29    30    2
    16    29    32    1
    17    32    33   ar
    18    33    34   ar
    19    34    38    1
    20    38    39    1
    21    38    40    1
    22    38    41    1
    23    34    35   ar
    24    35    36   ar
    25    36    42    1
    26    42    43    1
    27    42    44    1
    28    42    45    1
    29    36    37   ar
    30     4     5    1
    31     5     6    2
    32    10    11    1
    33    11    18    1
    34    18    19    1
    35    19    20    2
    36    19    21    2
    37    19    22    1
    38    22    23   ar
    39    23    24   ar
    40    24    25   ar
    41    25    26   ar
    42    26    27   ar
    43    11    12    1
    44    12     7    1
    45     5     1   am
    46    27    22   ar
    47    37    32   ar
    48    28    31    1
@<TRIPOS>MOLECULE
*****
 45 48 0 0 0
SMALL
GASTEIGER

@<TRIPOS>ATOM
      1 N         139.8018  140.5826  158.1652 N.am    1  UNL1       -0.2797
      2 C         139.0209  140.5881  156.8845 C.3     1  UNL1        0.0956
      3 C         139.1735  139.2410  156.2427 C.3     1  UNL1        0.0505
      4 C         140.0488  138.4029  157.1267 C.3     1  UNL1        0.1507
      5 C         140.4371  139.2320  158.3148 C.2     1  UNL1        0.2435
      6 O         141.3078  138.7884  159.4529 O.2     1  UNL1       -0.2731
      7 C         140.1735  144.0150  161.0515 C.3     1  UNL1        0.0577
      8 C         140.9119  144.0492  159.7463 C.3     1  UNL1        0.0177
      9 C         140.7880  142.9051  158.7842 C.3     1  UNL1        0.0212
     10 C         139.9257  141.7267  159.1273 C.3     1  UNL1        0.0771
     11 C         139.1872  141.6925  160.4324 C.3     1  UNL1        0.0436
     12 C         139.3111  142.8366  161.3945 C.3     1  UNL1        0.0194
     13 N         140.2973  145.1591  162.0135 N.3     1  UNL1       -0.2741
     14 C         139.7438  146.5057  161.6527 C.3     1  UNL1        0.0896
     15 C         140.1760  144.5218  164.5293 C.3     1  UNL1        0.0173
     16 C         140.9747  144.9566  163.3364 C.3     1  UNL1        0.0576
     17 C         142.4510  145.1890  163.4665 C.3     1  UNL1        0.0173
     18 C         138.3248  140.5140  160.7756 C.3     1  UNL1        0.1576
     19 S         138.3576  139.9386  162.1604 S.O2    1  UNL1        0.0087
     20 O         139.6462  139.2410  161.8400 O.2     1  UNL1       -0.1686
     21 O         137.0690  140.6362  162.4807 O.2     1  UNL1       -0.1686
     22 C         138.3904  139.3631  163.5453 C.ar    1  UNL1        0.1057
     23 C         138.0466  140.2249  164.7239 C.ar    1  UNL1        0.0183
     24 C         138.0793  139.6495  166.1087 C.ar    1  UNL1        0.0013
     25 C         138.4559  138.2123  166.3149 C.ar    1  UNL1        0.0001
     26 C         138.7997  137.3505  165.1363 C.ar    1  UNL1        0.0013
     27 C         138.7670  137.9259  163.7515 C.ar    1  UNL1        0.0183
     28 N         140.4630  136.9846  156.8680 N.am    1  UNL1       -0.2948
     29 C         141.8811  136.6745  156.4896 C.2     1  UNL1        0.2461
     30 O         142.8848  137.7827  156.3700 O.2     1  UNL1       -0.2701
     31 H         139.8042  136.2572  156.9465 H       1  UNL1        0.1501
     32 C         142.2952  135.2563  156.2309 C.ar    1  UNL1        0.0533
     33 C         141.5964  134.4516  155.1754 C.ar    1  UNL1        0.0083
     34 C         142.0106  133.0332  154.9167 C.ar    1  UNL1        0.0715
     35 C         143.1235  132.4197  155.7134 C.ar    1  UNL1        0.0077
     36 C         143.8224  133.2244  156.7689 C.ar    1  UNL1        0.0715
     37 C         143.4082  134.6428  157.0277 C.ar    1  UNL1        0.0083
     38 C         141.3117  132.2285  153.8612 C.3     1  UNL1        0.4186
     39 F         140.6129  131.4238  152.8057 F       1  UNL1       -0.1659
     40 F         142.1503  132.8854  152.8051 F       1  UNL1       -0.1659
     41 F         140.4732  131.5716  154.9172 F       1  UNL1       -0.1659
     42 C         144.9353  132.6109  157.5657 C.3     1  UNL1        0.4186
     43 F         146.0483  131.9973  158.3624 F       1  UNL1       -0.1659
     44 F         144.6218  133.5284  158.7102 F       1  UNL1       -0.1659
     45 F         145.2489  131.6934  156.4212 F       1  UNL1       -0.1659
@<TRIPOS>BOND
     1    15    16    1
     2    16    17    1
     3    16    13    1
     4    13    14    1
     5     7    13    1
     6     7     8    1
     7     8     9    1
     8     9    10    1
     9    10     1    1
    10     1     2    1
    11     2     3    1
    12     3     4    1
    13     4    28    1
    14    28    29   am
    15    29    30    2
    16    29    32    1
    17    32    33   ar
    18    33    34   ar
    19    34    38    1
    20    38    39    1
    21    38    40    1
    22    38    41    1
    23    34    35   ar
    24    35    36   ar
    25    36    42    1
    26    42    43    1
    27    42    44    1
    28    42    45    1
    29    36    37   ar
    30     4     5    1
    31     5     6    2
    32    10    11    1
    33    11    18    1
    34    18    19    1
    35    19    20    2
    36    19    21    2
    37    19    22    1
    38    22    23   ar
    39    23    24   ar
    40    24    25   ar
    41    25    26   ar
    42    26    27   ar
    43    11    12    1
    44    12     7    1
    45     5     1   am
    46    27    22   ar
    47    37    32   ar
    48    28    31    1
@<TRIPOS>MOLECULE
*****
 45 48 0 0 0
SMALL
GASTEIGER

@<TRIPOS>ATOM
      1 N         140.3415  140.2710  160.2252 N.am    1  UNL1       -0.2797
      2 C         139.7277  141.6385  160.2795 C.3     1  UNL1        0.0956
      3 C         139.5343  142.0030  161.7216 C.3     1  UNL1        0.0505
      4 C         140.0286  140.8607  162.5587 C.3     1  UNL1        0.1507
      5 C         140.5275  139.7902  161.6339 C.2     1  UNL1        0.2435
      6 O         141.1101  138.4707  162.0455 O.2     1  UNL1       -0.2731
      7 C         141.4333  138.0078  156.4921 C.3     1  UNL1        0.0577
      8 C         140.1856  137.6541  157.2457 C.3     1  UNL1        0.0177
      9 C         139.8216  138.4085  158.4901 C.3     1  UNL1        0.0212
     10 C         140.7054  139.5166  158.9809 C.3     1  UNL1        0.0771
     11 C         141.9532  139.8703  158.2273 C.3     1  UNL1        0.0436
     12 C         142.3171  139.1159  156.9829 C.3     1  UNL1        0.0194
     13 N         141.7973  137.2535  155.2478 N.3     1  UNL1       -0.2741
     14 C         141.4440  137.8125  153.9014 C.3     1  UNL1        0.0896
     15 C         143.1601  135.5363  156.6420 C.3     1  UNL1        0.0173
     16 C         142.5144  135.9400  155.3497 C.3     1  UNL1        0.0576
     17 C         142.5860  135.0301  154.1592 C.3     1  UNL1        0.0173
     18 C         142.8371  140.9785  158.7181 C.3     1  UNL1        0.1576
     19 S         143.5021  140.8698  160.0581 S.O2    1  UNL1        0.0087
     20 O         143.9901  139.4962  159.7045 O.2     1  UNL1       -0.1686
     21 O         143.0141  142.2433  160.4118 O.2     1  UNL1       -0.1686
     22 C         144.1672  140.7610  161.3983 C.ar    1  UNL1        0.1057
     23 C         144.9806  141.9051  161.9269 C.ar    1  UNL1        0.0183
     24 C         145.6457  141.7964  163.2670 C.ar    1  UNL1        0.0013
     25 C         145.4974  140.5436  164.0784 C.ar    1  UNL1        0.0001
     26 C         144.6840  139.3995  163.5497 C.ar    1  UNL1        0.0013
     27 C         144.0189  139.5082  162.2097 C.ar    1  UNL1        0.0183
     28 N         140.0247  140.7995  164.0575 N.am    1  UNL1       -0.2948
     29 C         141.1491  141.4155  164.8362 C.2     1  UNL1        0.2461
     30 O         142.2774  142.0927  164.1161 O.2     1  UNL1       -0.2701
     31 H         139.2842  140.3551  164.5301 H       1  UNL1        0.1501
     32 C         141.1452  141.3543  166.3348 C.ar    1  UNL1        0.0533
     33 C         142.3360  141.8379  167.1083 C.ar    1  UNL1        0.0083
     34 C         142.3321  141.7767  168.6071 C.ar    1  UNL1        0.0715
     35 C         141.1374  141.2319  169.3324 C.ar    1  UNL1        0.0077
     36 C         139.9467  140.7483  168.5589 C.ar    1  UNL1        0.0715
     37 C         139.9506  140.8095  167.0601 C.ar    1  UNL1        0.0083
     38 C         143.5229  142.2602  169.3806 C.3     1  UNL1        0.4186
     39 F         144.7136  142.7438  170.1540 F       1  UNL1       -0.1659
     40 F         142.9443  141.6772  170.6357 F       1  UNL1       -0.1659
     41 F         144.1013  142.8433  168.1255 F       1  UNL1       -0.1659
     42 C         138.7520  140.2036  169.2842 C.3     1  UNL1        0.4186
     43 F         137.5574  139.6588  170.0095 F       1  UNL1       -0.1659
     44 F         138.4438  139.3194  168.1124 F       1  UNL1       -0.1659
     45 F         139.0602  141.0878  170.4560 F       1  UNL1       -0.1659
@<TRIPOS>BOND
     1    15    16    1
     2    16    17    1
     3    16    13    1
     4    13    14    1
     5     7    13    1
     6     7     8    1
     7     8     9    1
     8     9    10    1
     9    10     1    1
    10     1     2    1
    11     2     3    1
    12     3     4    1
    13     4    28    1
    14    28    29   am
    15    29    30    2
    16    29    32    1
    17    32    33   ar
    18    33    34   ar
    19    34    38    1
    20    38    39    1
    21    38    40    1
    22    38    41    1
    23    34    35   ar
    24    35    36   ar
    25    36    42    1
    26    42    43    1
    27    42    44    1
    28    42    45    1
    29    36    37   ar
    30     4     5    1
    31     5     6    2
    32    10    11    1
    33    11    18    1
    34    18    19    1
    35    19    20    2
    36    19    21    2
    37    19    22    1
    38    22    23   ar
    39    23    24   ar
    40    24    25   ar
    41    25    26   ar
    42    26    27   ar
    43    11    12    1
    44    12     7    1
    45     5     1   am
    46    27    22   ar
    47    37    32   ar
    48    28    31    1
@<TRIPOS>MOLECULE
*****
 45 48 0 0 0
SMALL
GASTEIGER

@<TRIPOS>ATOM
      1 N         140.0614  140.4099  158.0439 N.am    1  UNL1       -0.2797
      2 C         139.2293  140.4076  156.7959 C.3     1  UNL1        0.0956
      3 C         139.4082  139.0795  156.1219 C.3     1  UNL1        0.0505
      4 C         140.3508  138.2610  156.9534 C.3     1  UNL1        0.1507
      5 C         140.7545  139.0832  158.1413 C.2     1  UNL1        0.2435
      6 O         141.6876  138.6541  159.2345 O.2     1  UNL1       -0.2731
      7 C         140.4160  143.8013  160.9803 C.3     1  UNL1        0.0577
      8 C         141.1273  143.8735  159.6617 C.3     1  UNL1        0.0177
      9 C         141.0091  142.7430  158.6829 C.3     1  UNL1        0.0212
     10 C         140.1796  141.5404  159.0227 C.3     1  UNL1        0.0771
     11 C         139.4683  141.4682  160.3413 C.3     1  UNL1        0.0436
     12 C         139.5865  142.5987  161.3201 C.3     1  UNL1        0.0194
     13 N         140.5342  144.9318  161.9591 N.3     1  UNL1       -0.2741
     14 C         139.8696  146.2454  161.6716 C.3     1  UNL1        0.0896
     15 C         140.6217  144.3102  164.4802 C.3     1  UNL1        0.0173
     16 C         141.3170  144.7487  163.2255 C.3     1  UNL1        0.0576
     17 C         142.7951  145.0040  163.2372 C.3     1  UNL1        0.0173
     18 C         138.6387  140.2655  160.6812 C.3     1  UNL1        0.1576
     19 S         138.5836  139.7677  162.0951 S.O2    1  UNL1        0.0087
     20 O         137.2831  140.4871  162.2977 O.2     1  UNL1       -0.1686
     21 O         139.8841  139.0482  161.8924 O.2     1  UNL1       -0.1686
     22 C         138.5284  139.2698  163.5090 C.ar    1  UNL1        0.1057
     23 C         138.8698  137.8416  163.8151 C.ar    1  UNL1        0.0183
     24 C         138.8146  137.3437  165.2289 C.ar    1  UNL1        0.0013
     25 C         138.4182  138.2740  166.3367 C.ar    1  UNL1        0.0001
     26 C         138.0768  139.7022  166.0306 C.ar    1  UNL1        0.0013
     27 C         138.1320  140.2001  164.6168 C.ar    1  UNL1        0.0183
     28 N         140.8093  136.8653  156.6503 N.am    1  UNL1       -0.2948
     29 C         142.2398  136.6100  156.2781 C.2     1  UNL1        0.2461
     30 O         143.2118  137.7503  156.2089 O.2     1  UNL1       -0.2701
     31 H         140.1713  136.1169  156.6957 H       1  UNL1        0.1501
     32 C         142.6982  135.2143  155.9750 C.ar    1  UNL1        0.0533
     33 C         143.6444  134.5168  156.9068 C.ar    1  UNL1        0.0083
     34 C         144.1028  133.1210  156.6037 C.ar    1  UNL1        0.0715
     35 C         143.6150  132.4229  155.3689 C.ar    1  UNL1        0.0077
     36 C         142.6688  133.1204  154.4372 C.ar    1  UNL1        0.0715
     37 C         142.2104  134.5162  154.7402 C.ar    1  UNL1        0.0083
     38 C         145.0490  132.4234  157.5354 C.3     1  UNL1        0.4186
     39 F         145.9952  131.7259  158.4672 F       1  UNL1       -0.1659
     40 F         144.7341  133.4260  158.6058 F       1  UNL1       -0.1659
     41 F         145.3639  131.4209  156.4651 F       1  UNL1       -0.1659
     42 C         142.1811  132.4223  153.2024 C.3     1  UNL1        0.4186
     43 F         141.6933  131.7241  151.9676 F       1  UNL1       -0.1659
     44 F         140.8899  133.1813  153.2833 F       1  UNL1       -0.1659
     45 F         143.4723  131.6632  153.1215 F       1  UNL1       -0.1659
@<TRIPOS>BOND
     1    15    16    1
     2    16    17    1
     3    16    13    1
     4    13    14    1
     5     7    13    1
     6     7     8    1
     7     8     9    1
     8     9    10    1
     9    10     1    1
    10     1     2    1
    11     2     3    1
    12     3     4    1
    13     4    28    1
    14    28    29   am
    15    29    30    2
    16    29    32    1
    17    32    33   ar
    18    33    34   ar
    19    34    38    1
    20    38    39    1
    21    38    40    1
    22    38    41    1
    23    34    35   ar
    24    35    36   ar
    25    36    42    1
    26    42    43    1
    27    42    44    1
    28    42    45    1
    29    36    37   ar
    30     4     5    1
    31     5     6    2
    32    10    11    1
    33    11    18    1
    34    18    19    1
    35    19    20    2
    36    19    21    2
    37    19    22    1
    38    22    23   ar
    39    23    24   ar
    40    24    25   ar
    41    25    26   ar
    42    26    27   ar
    43    11    12    1
    44    12     7    1
    45     5     1   am
    46    27    22   ar
    47    37    32   ar
    48    28    31    1
@<TRIPOS>MOLECULE
*****
 45 48 0 0 0
SMALL
GASTEIGER

@<TRIPOS>ATOM
      1 N         143.0414  138.8544  163.4718 N.am    1  UNL1       -0.2797
      2 C         144.1665  139.5279  162.7433 C.3     1  UNL1        0.0956
      3 C         144.2475  138.9365  161.3672 C.3     1  UNL1        0.0505
      4 C         143.1726  137.8975  161.2452 C.3     1  UNL1        0.1507
      5 C         142.4272  137.8468  162.5459 C.2     1  UNL1        0.2435
      6 O         141.2705  136.9464  162.8647 O.2     1  UNL1       -0.2731
      7 C         141.7380  139.7071  167.6936 C.3     1  UNL1        0.0577
      8 C         143.0453  139.0179  167.4370 C.3     1  UNL1        0.0177
      9 C         143.4798  138.7337  166.0298 C.3     1  UNL1        0.0212
     10 C         142.6070  139.1387  164.8791 C.3     1  UNL1        0.0771
     11 C         141.2997  139.8279  165.1357 C.3     1  UNL1        0.0436
     12 C         140.8652  140.1121  166.5430 C.3     1  UNL1        0.0194
     13 N         141.3035  139.9913  169.1009 N.3     1  UNL1       -0.2741
     14 C         142.0080  139.3342  170.2506 C.3     1  UNL1        0.0896
     15 C         138.8312  140.3969  169.7887 C.3     1  UNL1        0.0173
     16 C         140.1645  140.9327  169.3586 C.3     1  UNL1        0.0576
     17 C         140.3588  142.4101  169.1860 C.3     1  UNL1        0.0173
     18 C         140.4267  140.2329  163.9850 C.3     1  UNL1        0.1576
     19 S         140.3257  141.6770  163.5922 S.O2    1  UNL1        0.0087
     20 O         139.2161  141.8689  164.5831 O.2     1  UNL1       -0.1686
     21 O         141.4353  141.4852  162.6013 O.2     1  UNL1       -0.1686
     22 C         140.2246  143.1212  163.1995 C.ar    1  UNL1        0.1057
     23 C         141.4414  143.9973  163.2436 C.ar    1  UNL1        0.0183
     24 C         141.3403  145.4415  162.8509 C.ar    1  UNL1        0.0013
     25 C         140.0226  146.0094  162.4141 C.ar    1  UNL1        0.0001
     26 C         138.8059  145.1333  162.3700 C.ar    1  UNL1        0.0013
     27 C         138.9069  143.6892  162.7627 C.ar    1  UNL1        0.0183
     28 N         142.8922  137.0568  160.0349 N.am    1  UNL1       -0.2948
     29 C         142.5037  137.7100  158.7416 C.2     1  UNL1        0.2461
     30 O         142.3957  139.2037  158.6586 O.2     1  UNL1       -0.2701
     31 H         142.9631  136.0764  160.0895 H       1  UNL1        0.1501
     32 C         142.2234  136.8692  157.5315 C.ar    1  UNL1        0.0533
     33 C         141.0911  137.2276  156.6153 C.ar    1  UNL1        0.0083
     34 C         140.8107  136.3869  155.4050 C.ar    1  UNL1        0.0715
     35 C         141.6626  135.1878  155.1111 C.ar    1  UNL1        0.0077
     36 C         142.7949  134.8294  156.0273 C.ar    1  UNL1        0.0715
     37 C         143.0753  135.6702  157.2375 C.ar    1  UNL1        0.0083
     38 C         139.6784  136.7453  154.4888 C.3     1  UNL1        0.4186
     39 F         138.5460  137.1036  153.5726 F       1  UNL1       -0.1659
     40 F         138.7527  136.8303  155.6661 F       1  UNL1       -0.1659
     41 F         140.6040  136.6602  153.3116 F       1  UNL1       -0.1659
     42 C         143.6468  133.6303  155.7333 C.3     1  UNL1        0.4186
     43 F         144.4987  132.4312  155.4394 F       1  UNL1       -0.1659
     44 F         142.9870  133.4900  154.3935 F       1  UNL1       -0.1659
     45 F         144.3065  133.7706  157.0731 F       1  UNL1       -0.1659
@<TRIPOS>BOND
     1    15    16    1
     2    16    17    1
     3    16    13    1
     4    13    14    1
     5     7    13    1
     6     7     8    1
     7     8     9    1
     8     9    10    1
     9    10     1    1
    10     1     2    1
    11     2     3    1
    12     3     4    1
    13     4    28    1
    14    28    29   am
    15    29    30    2
    16    29    32    1
    17    32    33   ar
    18    33    34   ar
    19    34    38    1
    20    38    39    1
    21    38    40    1
    22    38    41    1
    23    34    35   ar
    24    35    36   ar
    25    36    42    1
    26    42    43    1
    27    42    44    1
    28    42    45    1
    29    36    37   ar
    30     4     5    1
    31     5     6    2
    32    10    11    1
    33    11    18    1
    34    18    19    1
    35    19    20    2
    36    19    21    2
    37    19    22    1
    38    22    23   ar
    39    23    24   ar
    40    24    25   ar
    41    25    26   ar
    42    26    27   ar
    43    11    12    1
    44    12     7    1
    45     5     1   am
    46    27    22   ar
    47    37    32   ar
    48    28    31    1
@<TRIPOS>MOLECULE
*****
 45 48 0 0 0
SMALL
GASTEIGER

@<TRIPOS>ATOM
      1 N         142.1895  140.6330  158.7705 N.am    1  UNL1       -0.2797
      2 C         143.1250  140.9241  157.6346 C.3     1  UNL1        0.0956
      3 C         143.5613  139.6150  157.0464 C.3     1  UNL1        0.0505
      4 C         142.8954  138.5149  157.8186 C.3     1  UNL1        0.1507
      5 C         142.0476  139.1441  158.8842 C.2     1  UNL1        0.2435
      6 O         141.2058  138.4127  159.8873 O.2     1  UNL1       -0.2731
      7 C         140.1642  143.6899  161.3789 C.3     1  UNL1        0.0577
      8 C         139.7413  143.5256  159.9492 C.3     1  UNL1        0.0177
      9 C         140.4164  142.5067  159.0797 C.3     1  UNL1        0.0212
     10 C         141.5144  141.6520  159.6400 C.3     1  UNL1        0.0771
     11 C         141.9373  141.8162  161.0697 C.3     1  UNL1        0.0436
     12 C         141.2622  142.8352  161.9391 C.3     1  UNL1        0.0194
     13 N         139.4891  144.7089  162.2484 N.3     1  UNL1       -0.2741
     14 C         139.6183  146.1692  161.9312 C.3     1  UNL1        0.0896
     15 C         138.9764  144.8359  164.7922 C.3     1  UNL1        0.0173
     16 C         138.6848  144.2675  163.4350 C.3     1  UNL1        0.0576
     17 C         137.5888  143.2576  163.2646 C.3     1  UNL1        0.0173
     18 C         143.0353  140.9615  161.6300 C.3     1  UNL1        0.1576
     19 S         143.0009  140.5456  163.0707 S.O2    1  UNL1        0.0087
     20 O         141.8927  139.5817  162.7660 O.2     1  UNL1       -0.1686
     21 O         144.1090  141.5094  163.3755 O.2     1  UNL1       -0.1686
     22 C         142.9664  140.1295  164.5115 C.ar    1  UNL1        0.1057
     23 C         143.5146  138.7944  164.9199 C.ar    1  UNL1        0.0183
     24 C         143.4802  138.3783  166.3606 C.ar    1  UNL1        0.0013
     25 C         142.8976  139.2975  167.3929 C.ar    1  UNL1        0.0001
     26 C         142.3494  140.6326  166.9845 C.ar    1  UNL1        0.0013
     27 C         142.3838  141.0487  165.5438 C.ar    1  UNL1        0.0183
     28 N         143.0502  137.0439  157.5692 N.am    1  UNL1       -0.2948
     29 C         142.1891  136.3617  156.5479 C.2     1  UNL1        0.2461
     30 O         141.1731  137.1505  155.7760 O.2     1  UNL1       -0.2701
     31 H         143.7170  136.5262  158.0757 H       1  UNL1        0.1501
     32 C         142.3439  134.8908  156.2985 C.ar    1  UNL1        0.0533
     33 C         143.3397  134.0965  157.0907 C.ar    1  UNL1        0.0083
     34 C         143.4946  132.6255  156.8413 C.ar    1  UNL1        0.0715
     35 C         142.6536  131.9487  155.7997 C.ar    1  UNL1        0.0077
     36 C         141.6578  132.7430  155.0076 C.ar    1  UNL1        0.0715
     37 C         141.5029  134.2140  155.2570 C.ar    1  UNL1        0.0083
     38 C         144.4904  131.8312  157.6334 C.3     1  UNL1        0.4186
     39 F         145.4862  131.0370  158.4256 F       1  UNL1       -0.1659
     40 F         145.1249  133.1036  158.1116 F       1  UNL1       -0.1659
     41 F         143.8560  130.5589  157.1554 F       1  UNL1       -0.1659
     42 C         140.8168  132.0662  153.9660 C.3     1  UNL1        0.4186
     43 F         139.9759  131.3895  152.9245 F       1  UNL1       -0.1659
     44 F         141.4109  132.9517  152.9110 F       1  UNL1       -0.1659
     45 F         140.2228  131.1808  155.0210 F       1  UNL1       -0.1659
@<TRIPOS>BOND
     1    15    16    1
     2    16    17    1
     3    16    13    1
     4    13    14    1
     5     7    13    1
     6     7     8    1
     7     8     9    1
     8     9    10    1
     9    10     1    1
    10     1     2    1
    11     2     3    1
    12     3     4    1
    13     4    28    1
    14    28    29   am
    15    29    30    2
    16    29    32    1
    17    32    33   ar
    18    33    34   ar
    19    34    38    1
    20    38    39    1
    21    38    40    1
    22    38    41    1
    23    34    35   ar
    24    35    36   ar
    25    36    42    1
    26    42    43    1
    27    42    44    1
    28    42    45    1
    29    36    37   ar
    30     4     5    1
    31     5     6    2
    32    10    11    1
    33    11    18    1
    34    18    19    1
    35    19    20    2
    36    19    21    2
    37    19    22    1
    38    22    23   ar
    39    23    24   ar
    40    24    25   ar
    41    25    26   ar
    42    26    27   ar
    43    11    12    1
    44    12     7    1
    45     5     1   am
    46    27    22   ar
    47    37    32   ar
    48    28    31    1
@<TRIPOS>MOLECULE
*****
 45 48 0 0 0
SMALL
GASTEIGER

@<TRIPOS>ATOM
      1 N         138.9892  139.2201  163.3940 N.am    1  UNL1       -0.2797
      2 C         139.5839  138.0905  162.6064 C.3     1  UNL1        0.0956
      3 C         139.1925  138.2705  161.1696 C.3     1  UNL1        0.0505
      4 C         138.3559  139.5115  161.0691 C.3     1  UNL1        0.1507
      5 C         138.2302  140.0983  162.4439 C.2     1  UNL1        0.2435
      6 O         137.4777  141.3446  162.8051 O.2     1  UNL1       -0.2731
      7 C         139.4082  139.8616  167.8282 C.3     1  UNL1        0.0577
      8 C         138.2409  139.0891  167.2892 C.3     1  UNL1        0.0177
      9 C         138.1012  138.8753  165.8111 C.3     1  UNL1        0.0212
     10 C         139.1288  139.4339  164.8721 C.3     1  UNL1        0.0771
     11 C         140.2962  140.2063  165.4111 C.3     1  UNL1        0.0436
     12 C         140.4359  140.4202  166.8892 C.3     1  UNL1        0.0194
     13 N         139.5479  140.0754  169.3063 N.3     1  UNL1       -0.2741
     14 C         138.3373  140.0184  170.1901 C.3     1  UNL1        0.0896
     15 C         141.2161  141.7042  170.4526 C.3     1  UNL1        0.0173
     16 C         140.8982  140.3462  169.9007 C.3     1  UNL1        0.0576
     17 C         141.9307  139.2589  169.9431 C.3     1  UNL1        0.0173
     18 C         141.3239  140.7650  164.4720 C.3     1  UNL1        0.1576
     19 S         141.0264  142.0088  163.6884 S.O2    1  UNL1        0.0087
     20 O         140.5489  142.6833  164.9402 O.2     1  UNL1       -0.1686
     21 O         141.5039  141.3344  162.4366 O.2     1  UNL1       -0.1686
     22 C         140.7288  143.2528  162.9047 C.ar    1  UNL1        0.1057
     23 C         139.5863  144.1374  163.3071 C.ar    1  UNL1        0.0183
     24 C         139.2887  145.3813  162.5235 C.ar    1  UNL1        0.0013
     25 C         140.1337  145.7406  161.3374 C.ar    1  UNL1        0.0001
     26 C         141.2763  144.8560  160.9350 C.ar    1  UNL1        0.0013
     27 C         141.5738  143.6121  161.7186 C.ar    1  UNL1        0.0183
     28 N         137.7511  140.0679  159.8143 N.am    1  UNL1       -0.2948
     29 C         138.4834  141.1156  159.0294 C.2     1  UNL1        0.2461
     30 O         139.8205  141.6068  159.4992 O.2     1  UNL1       -0.2701
     31 H         136.8735  139.7455  159.5059 H       1  UNL1        0.1501
     32 C         137.8786  141.6720  157.7746 C.ar    1  UNL1        0.0533
     33 C         138.3348  143.0000  157.2470 C.ar    1  UNL1        0.0083
     34 C         137.7300  143.5564  155.9922 C.ar    1  UNL1        0.0715
     35 C         136.6690  142.7848  155.2649 C.ar    1  UNL1        0.0077
     36 C         136.2128  141.4568  155.7924 C.ar    1  UNL1        0.0715
     37 C         136.8176  140.9004  157.0473 C.ar    1  UNL1        0.0083
     38 C         138.1862  144.8844  155.4646 C.3     1  UNL1        0.4186
     39 F         138.6423  146.2125  154.9371 F       1  UNL1       -0.1659
     40 F         136.9960  144.9311  154.5528 F       1  UNL1       -0.1659
     41 F         139.3762  144.8378  156.3764 F       1  UNL1       -0.1659
     42 C         135.1518  140.6853  155.0652 C.3     1  UNL1        0.4186
     43 F         134.0908  139.9137  154.3379 F       1  UNL1       -0.1659
     44 F         134.1682  141.7858  155.3325 F       1  UNL1       -0.1659
     45 F         136.1353  139.5847  154.7979 F       1  UNL1       -0.1659
@<TRIPOS>BOND
     1    15    16    1
     2    16    17    1
     3    16    13    1
     4    13    14    1
     5     7    13    1
     6     7     8    1
     7     8     9    1
     8     9    10    1
     9    10     1    1
    10     1     2    1
    11     2     3    1
    12     3     4    1
    13     4    28    1
    14    28    29   am
    15    29    30    2
    16    29    32    1
    17    32    33   ar
    18    33    34   ar
    19    34    38    1
    20    38    39    1
    21    38    40    1
    22    38    41    1
    23    34    35   ar
    24    35    36   ar
    25    36    42    1
    26    42    43    1
    27    42    44    1
    28    42    45    1
    29    36    37   ar
    30     4     5    1
    31     5     6    2
    32    10    11    1
    33    11    18    1
    34    18    19    1
    35    19    20    2
    36    19    21    2
    37    19    22    1
    38    22    23   ar
    39    23    24   ar
    40    24    25   ar
    41    25    26   ar
    42    26    27   ar
    43    11    12    1
    44    12     7    1
    45     5     1   am
    46    27    22   ar
    47    37    32   ar
    48    28    31    1
@<TRIPOS>MOLECULE
*****
 45 48 0 0 0
SMALL
GASTEIGER

@<TRIPOS>ATOM
      1 N         138.9622  139.3006  163.3182 N.am    1  UNL1       -0.2797
      2 C         139.5121  138.1636  162.5090 C.3     1  UNL1        0.0956
      3 C         139.1117  138.3760  161.0791 C.3     1  UNL1        0.0505
      4 C         138.3144  139.6444  161.0046 C.3     1  UNL1        0.1507
      5 C         138.2220  140.2158  162.3884 C.2     1  UNL1        0.2435
      6 O         137.5138  141.4804  162.7746 O.2     1  UNL1       -0.2731
      7 C         139.4480  139.8667  167.7559 C.3     1  UNL1        0.0577
      8 C         138.2612  139.1221  167.2203 C.3     1  UNL1        0.0177
      9 C         138.0993  138.9334  165.7411 C.3     1  UNL1        0.0212
     10 C         139.1242  139.4893  164.7974 C.3     1  UNL1        0.0771
     11 C         140.3110  140.2339  165.3330 C.3     1  UNL1        0.0436
     12 C         140.4730  140.4226  166.8123 C.3     1  UNL1        0.0194
     13 N         139.6100  140.0554  169.2352 N.3     1  UNL1       -0.2741
     14 C         138.4137  139.9771  170.1366 C.3     1  UNL1        0.0896
     15 C         141.3393  141.7095  170.2466 C.3     1  UNL1        0.0173
     16 C         140.9682  140.3224  169.8130 C.3     1  UNL1        0.0576
     17 C         141.9554  139.2022  169.9571 C.3     1  UNL1        0.0173
     18 C         141.3360  140.7898  164.3894 C.3     1  UNL1        0.1576
     19 S         141.0381  142.0341  163.6066 S.O2    1  UNL1        0.0087
     20 O         140.5584  142.7069  164.8585 O.2     1  UNL1       -0.1686
     21 O         141.5177  141.3614  162.3547 O.2     1  UNL1       -0.1686
     22 C         140.7400  143.2786  162.8238 C.ar    1  UNL1        0.1057
     23 C         141.5288  143.5938  161.5875 C.ar    1  UNL1        0.0183
     24 C         141.2309  144.8381  160.8047 C.ar    1  UNL1        0.0013
     25 C         140.1441  145.7672  161.2582 C.ar    1  UNL1        0.0001
     26 C         139.3554  145.4520  162.4945 C.ar    1  UNL1        0.0013
     27 C         139.6533  144.2077  163.2773 C.ar    1  UNL1        0.0183
     28 N         137.7147  140.2373  159.7641 N.am    1  UNL1       -0.2948
     29 C         138.5152  141.1887  158.9249 C.2     1  UNL1        0.2461
     30 O         139.9152  141.5473  159.3264 O.2     1  UNL1       -0.2701
     31 H         136.7958  140.0019  159.5006 H       1  UNL1        0.1501
     32 C         137.9155  141.7816  157.6845 C.ar    1  UNL1        0.0533
     33 C         136.7534  141.1074  157.0173 C.ar    1  UNL1        0.0083
     34 C         136.1536  141.7003  155.7767 C.ar    1  UNL1        0.0715
     35 C         136.7159  142.9672  155.2034 C.ar    1  UNL1        0.0077
     36 C         137.8779  143.6414  155.8707 C.ar    1  UNL1        0.0715
     37 C         138.4777  143.0485  157.1112 C.ar    1  UNL1        0.0083
     38 C         134.9916  141.0261  155.1095 C.3     1  UNL1        0.4186
     39 F         133.8295  140.3519  154.4422 F       1  UNL1       -0.1659
     40 F         135.5775  141.3458  153.7661 F       1  UNL1       -0.1659
     41 F         134.4057  140.7064  156.4527 F       1  UNL1       -0.1659
     42 C         138.4402  144.9083  155.2974 C.3     1  UNL1        0.4186
     43 F         139.0025  146.1753  154.7241 F       1  UNL1       -0.1659
     44 F         139.7947  144.5494  155.8326 F       1  UNL1       -0.1659
     45 F         137.0857  145.2673  154.7622 F       1  UNL1       -0.1659
@<TRIPOS>BOND
     1    15    16    1
     2    16    17    1
     3    16    13    1
     4    13    14    1
     5     7    13    1
     6     7     8    1
     7     8     9    1
     8     9    10    1
     9    10     1    1
    10     1     2    1
    11     2     3    1
    12     3     4    1
    13     4    28    1
    14    28    29   am
    15    29    30    2
    16    29    32    1
    17    32    33   ar
    18    33    34   ar
    19    34    38    1
    20    38    39    1
    21    38    40    1
    22    38    41    1
    23    34    35   ar
    24    35    36   ar
    25    36    42    1
    26    42    43    1
    27    42    44    1
    28    42    45    1
    29    36    37   ar
    30     4     5    1
    31     5     6    2
    32    10    11    1
    33    11    18    1
    34    18    19    1
    35    19    20    2
    36    19    21    2
    37    19    22    1
    38    22    23   ar
    39    23    24   ar
    40    24    25   ar
    41    25    26   ar
    42    26    27   ar
    43    11    12    1
    44    12     7    1
    45     5     1   am
    46    27    22   ar
    47    37    32   ar
    48    28    31    1
@<TRIPOS>MOLECULE
*****
 45 48 0 0 0
SMALL
GASTEIGER

@<TRIPOS>ATOM
      1 N         143.3905  141.1395  160.8431 N.am    1  UNL1       -0.2797
      2 C         144.7724  141.2638  161.4130 C.3     1  UNL1        0.0956
      3 C         144.6448  141.5609  162.8778 C.3     1  UNL1        0.0505
      4 C         143.1840  141.6202  163.2131 C.3     1  UNL1        0.1507
      5 C         142.4088  141.3598  161.9556 C.2     1  UNL1        0.2435
      6 O         140.9143  141.3256  161.8323 O.2     1  UNL1       -0.2731
      7 C         142.3692  140.2602  156.5496 C.3     1  UNL1        0.0577
      8 C         142.5084  141.6804  157.0118 C.3     1  UNL1        0.0177
      9 C         142.8488  141.9735  158.4429 C.3     1  UNL1        0.0212
     10 C         143.0501  140.8464  159.4119 C.3     1  UNL1        0.0771
     11 C         142.9109  139.4262  158.9498 C.3     1  UNL1        0.0436
     12 C         142.5705  139.1331  157.5187 C.3     1  UNL1        0.0194
     13 N         142.0288  139.9671  155.1185 N.3     1  UNL1       -0.2741
     14 C         140.6565  140.2735  154.5961 C.3     1  UNL1        0.0896
     15 C         142.6378  138.4774  153.0789 C.3     1  UNL1        0.0173
     16 C         143.0606  139.3676  154.2097 C.3     1  UNL1        0.0576
     17 C         144.5154  139.6584  154.4317 C.3     1  UNL1        0.0173
     18 C         143.1122  138.2990  159.9189 C.3     1  UNL1        0.1576
     19 S         142.1417  138.0950  161.0442 S.O2    1  UNL1        0.0087
     20 O         143.2853  137.9237  161.9995 O.2     1  UNL1       -0.1686
     21 O         140.9980  138.2663  160.0888 O.2     1  UNL1       -0.1686
     22 C         141.1711  137.8910  162.1696 C.ar    1  UNL1        0.1057
     23 C         139.6953  137.9370  161.9048 C.ar    1  UNL1        0.0183
     24 C         138.7248  137.7330  163.0301 C.ar    1  UNL1        0.0013
     25 C         139.2300  137.4830  164.4201 C.ar    1  UNL1        0.0001
     26 C         140.7057  137.4370  164.6849 C.ar    1  UNL1        0.0013
     27 C         141.6763  137.6410  163.5596 C.ar    1  UNL1        0.0183
     28 N         142.6007  141.8922  164.5680 N.am    1  UNL1       -0.2948
     29 C         142.8073  140.9115  165.6841 C.2     1  UNL1        0.2461
     30 O         143.5971  139.6589  165.4453 O.2     1  UNL1       -0.2701
     31 H         142.0824  142.7143  164.7248 H       1  UNL1        0.1501
     32 C         142.2240  141.1836  167.0390 C.ar    1  UNL1        0.0533
     33 C         142.9500  142.0745  168.0029 C.ar    1  UNL1        0.0083
     34 C         142.3667  142.3465  169.3579 C.ar    1  UNL1        0.0715
     35 C         141.0575  141.7277  169.7489 C.ar    1  UNL1        0.0077
     36 C         140.3314  140.8368  168.7849 C.ar    1  UNL1        0.0715
     37 C         140.9147  140.5648  167.4299 C.ar    1  UNL1        0.0083
     38 C         143.0928  143.2375  170.3219 C.3     1  UNL1        0.4186
     39 F         143.8188  144.1284  171.2858 F       1  UNL1       -0.1659
     40 F         144.3262  142.3975  170.1692 F       1  UNL1       -0.1659
     41 F         141.8595  144.0773  170.4746 F       1  UNL1       -0.1659
     42 C         139.0222  140.2180  169.1759 C.3     1  UNL1        0.4186
     43 F         137.7129  139.5992  169.5668 F       1  UNL1       -0.1659
     44 F         139.0672  139.3503  167.9532 F       1  UNL1       -0.1659
     45 F         138.9772  141.0857  170.3986 F       1  UNL1       -0.1659
@<TRIPOS>BOND
     1    15    16    1
     2    16    17    1
     3    16    13    1
     4    13    14    1
     5     7    13    1
     6     7     8    1
     7     8     9    1
     8     9    10    1
     9    10     1    1
    10     1     2    1
    11     2     3    1
    12     3     4    1
    13     4    28    1
    14    28    29   am
    15    29    30    2
    16    29    32    1
    17    32    33   ar
    18    33    34   ar
    19    34    38    1
    20    38    39    1
    21    38    40    1
    22    38    41    1
    23    34    35   ar
    24    35    36   ar
    25    36    42    1
    26    42    43    1
    27    42    44    1
    28    42    45    1
    29    36    37   ar
    30     4     5    1
    31     5     6    2
    32    10    11    1
    33    11    18    1
    34    18    19    1
    35    19    20    2
    36    19    21    2
    37    19    22    1
    38    22    23   ar
    39    23    24   ar
    40    24    25   ar
    41    25    26   ar
    42    26    27   ar
    43    11    12    1
    44    12     7    1
    45     5     1   am
    46    27    22   ar
    47    37    32   ar
    48    28    31    1
