@<TRIPOS>MOLECULE
*****
 28 31 0 0 0
SMALL
GASTEIGER

@<TRIPOS>ATOM
      1 N         141.9609  141.1864  166.0830 N.pl3   1  UNL1       -0.2861
      2 C         142.5762  142.4161  165.4834 C.ar    1  UNL1        0.0576
      3 C         143.9811  142.8020  165.8401 C.ar    1  UNL1        0.0153
      4 C         144.5962  144.0316  165.2406 C.ar    1  UNL1        0.0013
      5 C         143.8065  144.8754  164.2844 C.ar    1  UNL1        0.0006
      6 C         142.4016  144.4896  163.9277 C.ar    1  UNL1        0.0077
      7 C         141.7864  143.2599  164.5272 C.ar    1  UNL1        0.0431
      8 S         140.3814  142.8740  164.1706 S.3     1  UNL1       -0.0844
      9 C         139.7663  141.6443  164.7701 C.ar    1  UNL1        0.0431
     10 C         138.3613  141.2584  164.4134 C.ar    1  UNL1        0.0077
     11 C         137.7461  140.0287  165.0129 C.ar    1  UNL1        0.0044
     12 C         138.5359  139.1849  165.9691 C.ar    1  UNL1        0.0727
     13 C         139.9408  139.5708  166.3258 C.ar    1  UNL1        0.0192
     14 C         140.5560  140.8005  165.7263 C.ar    1  UNL1        0.0576
     15 C         137.9207  137.9553  166.5686 C.3     1  UNL1        0.4186
     16 F         137.3055  136.7255  167.1681 F       1  UNL1       -0.1659
     17 F         138.4805  137.1292  165.4487 F       1  UNL1       -0.1659
     18 F         137.3609  138.7813  167.6885 F       1  UNL1       -0.1659
     19 C         142.7507  140.3426  167.0392 C.3     1  UNL1        0.0970
     20 C         143.2934  139.0160  166.5968 C.3     1  UNL1        0.0391
     21 C         143.7462  138.8258  165.1795 C.3     1  UNL1        0.0739
     22 C         139.6981  138.2476  160.7888 C.3     1  UNL1        0.0897
     23 N         140.7102  138.3922  161.8865 N.3     1  UNL1       -0.2691
     24 C         140.7255  137.4165  163.0257 C.3     1  UNL1        0.0897
     25 C         141.7375  137.5610  164.1233 C.3     1  UNL1        0.0897
     26 N         142.7341  138.6812  164.0818 N.3     1  UNL1       -0.2703
     27 C         142.7188  139.6569  162.9426 C.3     1  UNL1        0.0897
     28 C         141.7068  139.5124  161.8450 C.3     1  UNL1        0.0897
@<TRIPOS>BOND
     1    22    23    1
     2    23    24    1
     3    24    25    1
     4    25    26    1
     5    26    21    1
     6    21    20    1
     7    20    19    1
     8    19     1    1
     9     1     2    1
    10     2     3   ar
    11     3     4   ar
    12     4     5   ar
    13     5     6   ar
    14     6     7   ar
    15     7     8    1
    16     8     9    1
    17     9    10   ar
    18    10    11   ar
    19    11    12   ar
    20    12    15    1
    21    15    16    1
    22    15    17    1
    23    15    18    1
    24    12    13   ar
    25    13    14   ar
    26    26    27    1
    27    27    28    1
    28    28    23    1
    29    14     1    1
    30     7     2   ar
    31    14     9   ar
@<TRIPOS>MOLECULE
*****
 28 31 0 0 0
SMALL
GASTEIGER

@<TRIPOS>ATOM
      1 N         141.8526  140.9765  165.7258 N.pl3   1  UNL1       -0.2861
      2 C         143.1110  141.2279  164.9491 C.ar    1  UNL1        0.0576
      3 C         143.9196  142.4638  165.2109 C.ar    1  UNL1        0.0153
      4 C         145.1780  142.7152  164.4342 C.ar    1  UNL1        0.0013
      5 C         145.6278  141.7306  163.3958 C.ar    1  UNL1        0.0006
      6 C         144.8192  140.4947  163.1340 C.ar    1  UNL1        0.0077
      7 C         143.5608  140.2433  163.9107 C.ar    1  UNL1        0.0431
      8 S         142.7521  139.0073  163.6489 S.3     1  UNL1       -0.0844
      9 C         141.4937  138.7560  164.4256 C.ar    1  UNL1        0.0431
     10 C         140.6850  137.5200  164.1639 C.ar    1  UNL1        0.0077
     11 C         139.4266  137.2686  164.9405 C.ar    1  UNL1        0.0044
     12 C         138.9769  138.2532  165.9790 C.ar    1  UNL1        0.0727
     13 C         139.7855  139.4891  166.2407 C.ar    1  UNL1        0.0192
     14 C         141.0439  139.7405  165.4640 C.ar    1  UNL1        0.0576
     15 C         137.7185  138.0019  166.7556 C.3     1  UNL1        0.4186
     16 F         136.4600  137.7504  167.5323 F       1  UNL1       -0.1659
     17 F         137.7659  136.5547  166.3641 F       1  UNL1       -0.1659
     18 F         137.6711  139.4490  167.1472 F       1  UNL1       -0.1659
     19 C         141.4028  141.9610  166.7642 C.3     1  UNL1        0.0970
     20 C         140.3299  142.9573  166.4383 C.3     1  UNL1        0.0391
     21 C         140.1754  143.4607  165.0338 C.3     1  UNL1        0.0739
     22 C         137.5448  140.0162  160.8846 C.3     1  UNL1        0.0897
     23 N         138.2024  140.8773  161.9220 N.3     1  UNL1       -0.2691
     24 C         139.6075  141.3601  161.7150 C.3     1  UNL1        0.0897
     25 C         140.2651  142.2212  162.7522 C.3     1  UNL1        0.0897
     26 N         139.5177  142.5995  163.9965 N.3     1  UNL1       -0.2703
     27 C         138.1127  142.1168  164.2035 C.3     1  UNL1        0.0897
     28 C         137.4551  141.2557  163.1662 C.3     1  UNL1        0.0897
@<TRIPOS>BOND
     1    22    23    1
     2    23    24    1
     3    24    25    1
     4    25    26    1
     5    26    21    1
     6    21    20    1
     7    20    19    1
     8    19     1    1
     9     1     2    1
    10     2     3   ar
    11     3     4   ar
    12     4     5   ar
    13     5     6   ar
    14     6     7   ar
    15     7     8    1
    16     8     9    1
    17     9    10   ar
    18    10    11   ar
    19    11    12   ar
    20    12    15    1
    21    15    16    1
    22    15    17    1
    23    15    18    1
    24    12    13   ar
    25    13    14   ar
    26    26    27    1
    27    27    28    1
    28    28    23    1
    29    14     1    1
    30     7     2   ar
    31    14     9   ar
@<TRIPOS>MOLECULE
*****
 28 31 0 0 0
SMALL
GASTEIGER

@<TRIPOS>ATOM
      1 N         141.0256  142.1909  165.0056 N.pl3   1  UNL1       -0.2861
      2 C         142.1283  142.7612  164.1636 C.ar    1  UNL1        0.0576
      3 C         142.4909  144.2116  164.2846 C.ar    1  UNL1        0.0153
      4 C         143.5935  144.7818  163.4426 C.ar    1  UNL1        0.0013
      5 C         144.3335  143.9016  162.4795 C.ar    1  UNL1        0.0006
      6 C         143.9709  142.4511  162.3585 C.ar    1  UNL1        0.0077
      7 C         142.8683  141.8809  163.2005 C.ar    1  UNL1        0.0431
      8 S         142.5057  140.4304  163.0795 S.3     1  UNL1       -0.0844
      9 C         141.4031  139.8602  163.9215 C.ar    1  UNL1        0.0431
     10 C         141.0404  138.4097  163.8005 C.ar    1  UNL1        0.0077
     11 C         139.9378  137.8395  164.6425 C.ar    1  UNL1        0.0044
     12 C         139.1978  138.7197  165.6056 C.ar    1  UNL1        0.0727
     13 C         139.5604  140.1702  165.7266 C.ar    1  UNL1        0.0192
     14 C         140.6630  140.7404  164.8846 C.ar    1  UNL1        0.0576
     15 C         138.0952  138.1495  166.4476 C.3     1  UNL1        0.4186
     16 F         136.9925  137.5792  167.2897 F       1  UNL1       -0.1659
     17 F         138.2078  136.8467  165.7129 F       1  UNL1       -0.1659
     18 F         137.9825  139.4524  167.1823 F       1  UNL1       -0.1659
     19 C         140.2856  143.0711  165.9687 C.3     1  UNL1        0.0970
     20 C         139.1877  143.9661  165.4752 C.3     1  UNL1        0.0391
     21 C         138.4314  143.6088  164.2301 C.3     1  UNL1        0.0739
     22 C         140.4828  145.3553  158.8689 C.3     1  UNL1        0.0897
     23 N         139.9700  144.9187  160.2093 N.3     1  UNL1       -0.2691
     24 C         139.5473  143.4955  160.4233 C.3     1  UNL1        0.0897
     25 C         139.0344  143.0589  161.7635 C.3     1  UNL1        0.0897
     26 N         138.9443  144.0455  162.8898 N.3     1  UNL1       -0.2703
     27 C         139.3670  145.4687  162.6758 C.3     1  UNL1        0.0897
     28 C         139.8798  145.9053  161.3355 C.3     1  UNL1        0.0897
@<TRIPOS>BOND
     1    22    23    1
     2    23    24    1
     3    24    25    1
     4    25    26    1
     5    26    21    1
     6    21    20    1
     7    20    19    1
     8    19     1    1
     9     1     2    1
    10     2     3   ar
    11     3     4   ar
    12     4     5   ar
    13     5     6   ar
    14     6     7   ar
    15     7     8    1
    16     8     9    1
    17     9    10   ar
    18    10    11   ar
    19    11    12   ar
    20    12    15    1
    21    15    16    1
    22    15    17    1
    23    15    18    1
    24    12    13   ar
    25    13    14   ar
    26    26    27    1
    27    27    28    1
    28    28    23    1
    29    14     1    1
    30     7     2   ar
    31    14     9   ar
@<TRIPOS>MOLECULE
*****
 28 31 0 0 0
SMALL
GASTEIGER

@<TRIPOS>ATOM
      1 N         140.6095  139.7311  165.7179 N.pl3   1  UNL1       -0.2861
      2 C         141.4680  139.2107  164.6032 C.ar    1  UNL1        0.0576
      3 C         140.9024  138.2357  163.6135 C.ar    1  UNL1        0.0153
      4 C         141.7609  137.7154  162.4990 C.ar    1  UNL1        0.0013
      5 C         143.1849  138.1700  162.3741 C.ar    1  UNL1        0.0006
      6 C         143.7504  139.1450  163.3638 C.ar    1  UNL1        0.0077
      7 C         142.8920  139.6653  164.4784 C.ar    1  UNL1        0.0431
      8 S         143.4575  140.6403  165.4682 S.3     1  UNL1       -0.0844
      9 C         142.5991  141.1606  166.5827 C.ar    1  UNL1        0.0431
     10 C         143.1646  142.1356  167.5725 C.ar    1  UNL1        0.0077
     11 C         142.3061  142.6560  168.6871 C.ar    1  UNL1        0.0044
     12 C         140.8822  142.2014  168.8119 C.ar    1  UNL1        0.0727
     13 C         140.3166  141.2264  167.8222 C.ar    1  UNL1        0.0192
     14 C         141.1751  140.7060  166.7076 C.ar    1  UNL1        0.0576
     15 C         140.0237  142.7217  169.9265 C.3     1  UNL1        0.4186
     16 F         139.1652  143.2420  171.0411 F       1  UNL1       -0.1659
     17 F         139.2616  141.4299  169.9426 F       1  UNL1       -0.1659
     18 F         140.7858  144.0135  169.9104 F       1  UNL1       -0.1659
     19 C         139.1855  139.2765  165.8427 C.3     1  UNL1        0.0970
     20 C         138.0808  140.0990  165.2486 C.3     1  UNL1        0.0391
     21 C         138.1041  140.4438  163.7890 C.3     1  UNL1        0.0739
     22 C         139.7962  145.9242  162.0276 C.3     1  UNL1        0.0897
     23 N         139.3732  144.5540  162.4680 N.3     1  UNL1       -0.2691
     24 C         137.9965  144.3362  163.0223 C.3     1  UNL1        0.0897
     25 C         137.5735  142.9661  163.4626 C.3     1  UNL1        0.0897
     26 N         138.5271  141.8139  163.3486 N.3     1  UNL1       -0.2703
     27 C         139.9038  142.0318  162.7943 C.3     1  UNL1        0.0897
     28 C         140.3269  143.4019  162.3540 C.3     1  UNL1        0.0897
@<TRIPOS>BOND
     1    22    23    1
     2    23    24    1
     3    24    25    1
     4    25    26    1
     5    26    21    1
     6    21    20    1
     7    20    19    1
     8    19     1    1
     9     1     2    1
    10     2     3   ar
    11     3     4   ar
    12     4     5   ar
    13     5     6   ar
    14     6     7   ar
    15     7     8    1
    16     8     9    1
    17     9    10   ar
    18    10    11   ar
    19    11    12   ar
    20    12    15    1
    21    15    16    1
    22    15    17    1
    23    15    18    1
    24    12    13   ar
    25    13    14   ar
    26    26    27    1
    27    27    28    1
    28    28    23    1
    29    14     1    1
    30     7     2   ar
    31    14     9   ar
@<TRIPOS>MOLECULE
*****
 28 31 0 0 0
SMALL
GASTEIGER

@<TRIPOS>ATOM
      1 N         138.5921  141.7619  163.5536 N.pl3   1  UNL1       -0.2861
      2 C         139.2799  143.0508  163.2131 C.ar    1  UNL1        0.0576
      3 C         139.0191  143.7141  161.8933 C.ar    1  UNL1        0.0153
      4 C         139.7069  145.0029  161.5529 C.ar    1  UNL1        0.0013
      5 C         140.6553  145.6284  162.5323 C.ar    1  UNL1        0.0006
      6 C         140.9161  144.9651  163.8521 C.ar    1  UNL1        0.0077
      7 C         140.2283  143.6763  164.1925 C.ar    1  UNL1        0.0431
      8 S         140.4890  143.0128  165.5124 S.3     1  UNL1       -0.0844
      9 C         139.8013  141.7240  165.8528 C.ar    1  UNL1        0.0431
     10 C         140.0620  141.0606  167.1727 C.ar    1  UNL1        0.0077
     11 C         139.3743  139.7718  167.5131 C.ar    1  UNL1        0.0044
     12 C         138.4258  139.1463  166.5337 C.ar    1  UNL1        0.0727
     13 C         138.1651  139.8097  165.2139 C.ar    1  UNL1        0.0192
     14 C         138.8528  141.0985  164.8734 C.ar    1  UNL1        0.0576
     15 C         137.7381  137.8575  166.8742 C.3     1  UNL1        0.4186
     16 F         137.0503  136.5686  167.2146 F       1  UNL1       -0.1659
     17 F         138.4365  137.1828  165.7310 F       1  UNL1       -0.1659
     18 F         137.0396  138.5322  168.0174 F       1  UNL1       -0.1659
     19 C         137.6437  141.1364  162.5742 C.3     1  UNL1        0.0970
     20 C         138.1757  140.3636  161.4039 C.3     1  UNL1        0.0391
     21 C         138.9480  139.0977  161.6296 C.3     1  UNL1        0.0739
     22 C         144.5492  139.3416  163.7669 C.3     1  UNL1        0.0897
     23 N         143.1489  139.2807  163.2326 N.3     1  UNL1       -0.2691
     24 C         142.2086  138.2151  163.7128 C.3     1  UNL1        0.0897
     25 C         140.8084  138.1541  163.1785 C.3     1  UNL1        0.0897
     26 N         140.3483  139.1587  162.1640 N.3     1  UNL1       -0.2703
     27 C         141.2886  140.2242  161.6838 C.3     1  UNL1        0.0897
     28 C         142.6888  140.2852  162.2181 C.3     1  UNL1        0.0897
@<TRIPOS>BOND
     1    22    23    1
     2    23    24    1
     3    24    25    1
     4    25    26    1
     5    26    21    1
     6    21    20    1
     7    20    19    1
     8    19     1    1
     9     1     2    1
    10     2     3   ar
    11     3     4   ar
    12     4     5   ar
    13     5     6   ar
    14     6     7   ar
    15     7     8    1
    16     8     9    1
    17     9    10   ar
    18    10    11   ar
    19    11    12   ar
    20    12    15    1
    21    15    16    1
    22    15    17    1
    23    15    18    1
    24    12    13   ar
    25    13    14   ar
    26    26    27    1
    27    27    28    1
    28    28    23    1
    29    14     1    1
    30     7     2   ar
    31    14     9   ar
@<TRIPOS>MOLECULE
*****
 28 31 0 0 0
SMALL
GASTEIGER

@<TRIPOS>ATOM
      1 N         142.4113  139.9700  164.0656 N.pl3   1  UNL1       -0.2861
      2 C         143.0938  141.0932  163.3426 C.ar    1  UNL1        0.0576
      3 C         144.5487  140.9862  162.9937 C.ar    1  UNL1        0.0153
      4 C         145.2312  142.1093  162.2708 C.ar    1  UNL1        0.0013
      5 C         144.4588  143.3395  161.8967 C.ar    1  UNL1        0.0006
      6 C         143.0039  143.4466  162.2455 C.ar    1  UNL1        0.0077
      7 C         142.3214  142.3234  162.9685 C.ar    1  UNL1        0.0431
      8 S         140.8664  142.4305  163.3174 S.3     1  UNL1       -0.0844
      9 C         140.1839  141.3073  164.0404 C.ar    1  UNL1        0.0431
     10 C         138.7290  141.4143  164.3893 C.ar    1  UNL1        0.0077
     11 C         138.0465  140.2912  165.1123 C.ar    1  UNL1        0.0044
     12 C         138.8189  139.0610  165.4864 C.ar    1  UNL1        0.0727
     13 C         140.2738  138.9539  165.1375 C.ar    1  UNL1        0.0192
     14 C         140.9564  140.0771  164.4145 C.ar    1  UNL1        0.0576
     15 C         138.1364  137.9378  166.2093 C.3     1  UNL1        0.4186
     16 F         137.4540  136.8146  166.9323 F       1  UNL1       -0.1659
     17 F         138.8830  136.9439  165.3699 F       1  UNL1       -0.1659
     18 F         137.3899  138.9318  167.0488 F       1  UNL1       -0.1659
     19 C         143.1837  138.7398  164.4397 C.3     1  UNL1        0.0970
     20 C         144.0234  138.7306  165.6825 C.3     1  UNL1        0.0391
     21 C         143.4288  138.2868  166.9862 C.3     1  UNL1        0.0739
     22 C         141.3606  142.3564  170.8799 C.3     1  UNL1        0.0897
     23 N         141.8777  141.3390  169.9064 N.3     1  UNL1       -0.2691
     24 C         142.1056  139.9244  170.3502 C.3     1  UNL1        0.0897
     25 C         142.6226  138.9070  169.3769 C.3     1  UNL1        0.0897
     26 N         142.9118  139.3042  167.9596 N.3     1  UNL1       -0.2703
     27 C         142.6839  140.7188  167.5158 C.3     1  UNL1        0.0897
     28 C         142.1668  141.7362  168.4892 C.3     1  UNL1        0.0897
@<TRIPOS>BOND
     1    22    23    1
     2    23    24    1
     3    24    25    1
     4    25    26    1
     5    26    21    1
     6    21    20    1
     7    20    19    1
     8    19     1    1
     9     1     2    1
    10     2     3   ar
    11     3     4   ar
    12     4     5   ar
    13     5     6   ar
    14     6     7   ar
    15     7     8    1
    16     8     9    1
    17     9    10   ar
    18    10    11   ar
    19    11    12   ar
    20    12    15    1
    21    15    16    1
    22    15    17    1
    23    15    18    1
    24    12    13   ar
    25    13    14   ar
    26    26    27    1
    27    27    28    1
    28    28    23    1
    29    14     1    1
    30     7     2   ar
    31    14     9   ar
@<TRIPOS>MOLECULE
*****
 28 31 0 0 0
SMALL
GASTEIGER

@<TRIPOS>ATOM
      1 N         141.3174  138.7068  164.6770 N.pl3   1  UNL1       -0.2861
      2 C         142.2889  138.8452  163.5425 C.ar    1  UNL1        0.0576
      3 C         142.2948  137.8360  162.4328 C.ar    1  UNL1        0.0153
      4 C         143.2663  137.9744  161.2984 C.ar    1  UNL1        0.0013
      5 C         144.2319  139.1221  161.2736 C.ar    1  UNL1        0.0006
      6 C         144.2260  140.1313  162.3833 C.ar    1  UNL1        0.0077
      7 C         143.2545  139.9928  163.5177 C.ar    1  UNL1        0.0431
      8 S         143.2485  141.0021  164.6275 S.3     1  UNL1       -0.0844
      9 C         142.2771  140.8636  165.7619 C.ar    1  UNL1        0.0431
     10 C         142.2711  141.8729  166.8717 C.ar    1  UNL1        0.0077
     11 C         141.2997  141.7344  168.0062 C.ar    1  UNL1        0.0044
     12 C         140.3341  140.5868  168.0309 C.ar    1  UNL1        0.0727
     13 C         140.3400  139.5776  166.9213 C.ar    1  UNL1        0.0192
     14 C         141.3115  139.7160  165.7867 C.ar    1  UNL1        0.0576
     15 C         139.3626  140.4484  169.1654 C.3     1  UNL1        0.4186
     16 F         138.3910  140.3099  170.2999 F       1  UNL1       -0.1659
     17 F         138.5325  139.5105  168.3401 F       1  UNL1       -0.1659
     18 F         140.1927  141.3863  169.9907 F       1  UNL1       -0.1659
     19 C         140.3518  137.5592  164.7018 C.3     1  UNL1        0.0970
     20 C         138.9277  137.7680  164.2796 C.3     1  UNL1        0.0391
     21 C         138.6227  138.4917  163.0017 C.3     1  UNL1        0.0739
     22 C         137.6798  144.4169  163.0608 C.3     1  UNL1        0.0897
     23 N         137.9156  142.9355  163.0460 N.3     1  UNL1       -0.2691
     24 C         137.8829  142.1581  164.3284 C.3     1  UNL1        0.0897
     25 C         138.1186  140.6768  164.3136 C.3     1  UNL1        0.0897
     26 N         138.3870  139.9730  163.0165 N.3     1  UNL1       -0.2703
     27 C         138.4197  140.7505  161.7341 C.3     1  UNL1        0.0897
     28 C         138.1839  142.2317  161.7489 C.3     1  UNL1        0.0897
@<TRIPOS>BOND
     1    22    23    1
     2    23    24    1
     3    24    25    1
     4    25    26    1
     5    26    21    1
     6    21    20    1
     7    20    19    1
     8    19     1    1
     9     1     2    1
    10     2     3   ar
    11     3     4   ar
    12     4     5   ar
    13     5     6   ar
    14     6     7   ar
    15     7     8    1
    16     8     9    1
    17     9    10   ar
    18    10    11   ar
    19    11    12   ar
    20    12    15    1
    21    15    16    1
    22    15    17    1
    23    15    18    1
    24    12    13   ar
    25    13    14   ar
    26    26    27    1
    27    27    28    1
    28    28    23    1
    29    14     1    1
    30     7     2   ar
    31    14     9   ar
@<TRIPOS>MOLECULE
*****
 28 31 0 0 0
SMALL
GASTEIGER

@<TRIPOS>ATOM
      1 N         142.1316  139.7797  166.0591 N.pl3   1  UNL1       -0.2861
      2 C         141.1819  138.9602  165.2364 C.ar    1  UNL1        0.0576
      3 C         141.6747  138.2423  164.0151 C.ar    1  UNL1        0.0153
      4 C         140.7251  137.4228  163.1926 C.ar    1  UNL1        0.0013
      5 C         139.2826  137.3214  163.5913 C.ar    1  UNL1        0.0006
      6 C         138.7898  138.0393  164.8126 C.ar    1  UNL1        0.0077
      7 C         139.7395  138.8588  165.6352 C.ar    1  UNL1        0.0431
      8 S         139.2467  139.5768  166.8566 S.3     1  UNL1       -0.0844
      9 C         140.1963  140.3962  167.6791 C.ar    1  UNL1        0.0431
     10 C         139.7035  141.1143  168.9005 C.ar    1  UNL1        0.0077
     11 C         140.6532  141.9337  169.7230 C.ar    1  UNL1        0.0044
     12 C         142.0957  142.0352  169.3243 C.ar    1  UNL1        0.0727
     13 C         142.5885  141.3172  168.1030 C.ar    1  UNL1        0.0192
     14 C         141.6388  140.4977  167.2804 C.ar    1  UNL1        0.0576
     15 C         143.0453  142.8546  170.1468 C.3     1  UNL1        0.4186
     16 F         143.9950  143.6741  170.9694 F       1  UNL1       -0.1659
     17 F         141.9979  143.9177  170.2971 F       1  UNL1       -0.1659
     18 F         144.0928  141.7915  169.9966 F       1  UNL1       -0.1659
     19 C         143.5741  139.8812  165.6603 C.3     1  UNL1        0.0970
     20 C         143.9975  140.8806  164.6250 C.3     1  UNL1        0.0391
     21 C         143.8637  142.3489  164.9011 C.3     1  UNL1        0.0739
     22 C         139.4125  145.4825  162.3776 C.3     1  UNL1        0.0897
     23 N         140.5253  144.6991  163.0085 N.3     1  UNL1       -0.2691
     24 C         140.3670  143.2258  163.2416 C.3     1  UNL1        0.0897
     25 C         141.4797  142.4424  163.8724 C.3     1  UNL1        0.0897
     26 N         142.7508  143.1323  164.2702 N.3     1  UNL1       -0.2703
     27 C         142.9092  144.6056  164.0371 C.3     1  UNL1        0.0897
     28 C         141.7964  145.3890  163.4063 C.3     1  UNL1        0.0897
@<TRIPOS>BOND
     1    22    23    1
     2    23    24    1
     3    24    25    1
     4    25    26    1
     5    26    21    1
     6    21    20    1
     7    20    19    1
     8    19     1    1
     9     1     2    1
    10     2     3   ar
    11     3     4   ar
    12     4     5   ar
    13     5     6   ar
    14     6     7   ar
    15     7     8    1
    16     8     9    1
    17     9    10   ar
    18    10    11   ar
    19    11    12   ar
    20    12    15    1
    21    15    16    1
    22    15    17    1
    23    15    18    1
    24    12    13   ar
    25    13    14   ar
    26    26    27    1
    27    27    28    1
    28    28    23    1
    29    14     1    1
    30     7     2   ar
    31    14     9   ar
@<TRIPOS>MOLECULE
*****
 28 31 0 0 0
SMALL
GASTEIGER

@<TRIPOS>ATOM
      1 N         141.1158  138.7249  164.9497 N.pl3   1  UNL1       -0.2861
      2 C         139.8420  138.5002  165.7095 C.ar    1  UNL1        0.0576
      3 C         139.0058  137.2868  165.4294 C.ar    1  UNL1        0.0153
      4 C         137.7321  137.0622  166.1891 C.ar    1  UNL1        0.0013
      5 C         137.2946  138.0509  167.2289 C.ar    1  UNL1        0.0006
      6 C         138.1309  139.2642  167.5089 C.ar    1  UNL1        0.0077
      7 C         139.4046  139.4889  166.7492 C.ar    1  UNL1        0.0431
      8 S         140.2409  140.7022  167.0293 S.3     1  UNL1       -0.0844
      9 C         141.5146  140.9269  166.2696 C.ar    1  UNL1        0.0431
     10 C         142.3509  142.1402  166.5496 C.ar    1  UNL1        0.0077
     11 C         143.6246  142.3649  165.7899 C.ar    1  UNL1        0.0044
     12 C         144.0621  141.3762  164.7502 C.ar    1  UNL1        0.0727
     13 C         143.2258  140.1629  164.4701 C.ar    1  UNL1        0.0192
     14 C         141.9521  139.9382  165.2298 C.ar    1  UNL1        0.0576
     15 C         145.3358  141.6008  163.9905 C.3     1  UNL1        0.4186
     16 F         146.6095  141.8255  163.2307 F       1  UNL1       -0.1659
     17 F         145.4315  142.9850  164.5603 F       1  UNL1       -0.1659
     18 F         145.2400  140.2166  163.4207 F       1  UNL1       -0.1659
     19 C         141.5533  137.7362  163.9100 C.3     1  UNL1        0.0970
     20 C         141.2527  137.9880  162.4621 C.3     1  UNL1        0.0391
     21 C         139.8606  138.3501  162.0371 C.3     1  UNL1        0.0739
     22 C         137.7854  143.9010  162.9757 C.3     1  UNL1        0.0897
     23 N         138.3042  142.5132  162.7411 N.3     1  UNL1       -0.2691
     24 C         139.7198  142.3081  162.2895 C.3     1  UNL1        0.0897
     25 C         140.2386  140.9204  162.0549 C.3     1  UNL1        0.0897
     26 N         139.3418  139.7378  162.2717 N.3     1  UNL1       -0.2703
     27 C         137.9261  139.9429  162.7233 C.3     1  UNL1        0.0897
     28 C         137.4073  141.3306  162.9579 C.3     1  UNL1        0.0897
@<TRIPOS>BOND
     1    22    23    1
     2    23    24    1
     3    24    25    1
     4    25    26    1
     5    26    21    1
     6    21    20    1
     7    20    19    1
     8    19     1    1
     9     1     2    1
    10     2     3   ar
    11     3     4   ar
    12     4     5   ar
    13     5     6   ar
    14     6     7   ar
    15     7     8    1
    16     8     9    1
    17     9    10   ar
    18    10    11   ar
    19    11    12   ar
    20    12    15    1
    21    15    16    1
    22    15    17    1
    23    15    18    1
    24    12    13   ar
    25    13    14   ar
    26    26    27    1
    27    27    28    1
    28    28    23    1
    29    14     1    1
    30     7     2   ar
    31    14     9   ar
