@<TRIPOS>MOLECULE
*****
 27 28 0 0 0
SMALL
GASTEIGER

@<TRIPOS>ATOM
      1 C         144.6668  139.9800  164.0946 C.3     1  UNL1        0.2068
      2 C         145.5522  141.1722  163.8828 C.3     1  UNL1        0.0646
      3 C         145.2738  142.1224  162.7561 C.3     1  UNL1        0.0759
      4 C         141.4829  144.5471  162.7421 C.3     1  UNL1        0.1018
      5 C         141.5895  143.3169  161.8905 C.3     1  UNL1        0.0285
      6 C         142.8531  142.5087  161.8952 C.3     1  UNL1        0.0727
      7 N         144.0102  142.9307  162.7514 N.3     1  UNL1       -0.2725
      8 C         143.9036  144.1609  163.6030 C.3     1  UNL1        0.0727
      9 C         142.6400  144.9691  163.5983 C.3     1  UNL1        0.0285
     10 C         140.2193  145.3554  162.7374 C.2     1  UNL1        0.3165
     11 O         140.0815  146.5265  161.8105 O.2     1  UNL1       -0.2501
     12 O         139.0935  144.9924  163.6597 O.3     1  UNL1       -0.4485
     13 C         137.7991  142.7664  163.3134 C.3     1  UNL1        0.0513
     14 C         137.9005  144.2520  163.1319 C.3     1  UNL1        0.2086
     15 O         143.2741  140.1641  164.6205 O.3     1  UNL1       -0.4754
     16 C         143.0591  140.5700  166.0484 C.ar    1  UNL1        0.1386
     17 C         142.7471  139.5312  167.0846 C.ar    1  UNL1        0.0383
     18 C         142.5321  139.9371  168.5125 C.ar    1  UNL1        0.0230
     19 C         142.6292  141.3817  168.9043 C.ar    1  UNL1        0.1219
     20 C         142.9412  142.4206  167.8682 C.ar    1  UNL1        0.0230
     21 C         143.1562  142.0147  166.4402 C.ar    1  UNL1        0.0383
     22 S         142.4142  141.7876  170.3323 S.O2    1  UNL1        0.0572
     23 N         142.1993  142.1935  171.7603 N.3     1  UNL1       -0.2035
     24 O         142.1595  140.3561  170.7009 O.2     1  UNL1       -0.1532
     25 O         142.6689  143.2191  169.9637 O.2     1  UNL1       -0.1532
     26 H         141.9873  141.3677  172.3202 H       1  UNL1        0.1442
     27 H         141.4202  142.8496  171.8136 H       1  UNL1        0.1442
@<TRIPOS>BOND
     1    13    14    1
     2    14    12    1
     3    12    10    1
     4    10    11    2
     5    10     4    1
     6     4     5    1
     7     5     6    1
     8     6     7    1
     9     7     3    1
    10     3     2    1
    11     2     1    1
    12     1    15    1
    13    15    16    1
    14    16    17   ar
    15    17    18   ar
    16    18    19   ar
    17    19    22    1
    18    22    23    1
    19    22    24    2
    20    22    25    2
    21    19    20   ar
    22    20    21   ar
    23     7     8    1
    24     8     9    1
    25     9     4    1
    26    21    16   ar
    27    23    26    1
    28    23    27    1
@<TRIPOS>MOLECULE
*****
 27 28 0 0 0
SMALL
GASTEIGER

@<TRIPOS>ATOM
      1 C         139.0418  139.2779  165.0665 C.3     1  UNL1        0.2068
      2 C         139.3824  137.8824  164.6346 C.3     1  UNL1        0.0646
      3 C         140.7876  137.5431  164.2342 C.3     1  UNL1        0.0759
      4 C         143.9313  140.7605  164.1112 C.3     1  UNL1        0.1018
      5 C         142.9327  140.6446  162.9979 C.3     1  UNL1        0.0285
      6 C         141.8848  139.5721  163.0389 C.3     1  UNL1        0.0727
      7 N         141.8355  138.6156  164.1932 N.3     1  UNL1       -0.2725
      8 C         142.8340  138.7315  165.3065 C.3     1  UNL1        0.0727
      9 C         143.8819  139.8040  165.2655 C.3     1  UNL1        0.0285
     10 C         144.9792  141.8330  164.0701 C.2     1  UNL1        0.3165
     11 O         146.1772  141.6774  163.1811 O.2     1  UNL1       -0.2501
     12 O         144.8290  143.0611  164.9182 O.3     1  UNL1       -0.4485
     13 C         143.8472  144.6036  163.0723 C.3     1  UNL1        0.0513
     14 C         143.8846  144.1494  164.5015 C.3     1  UNL1        0.2086
     15 O         138.6795  139.5532  166.4959 O.3     1  UNL1       -0.4754
     16 C         139.6102  140.3441  167.3666 C.ar    1  UNL1        0.1386
     17 C         140.6498  141.2283  166.7441 C.ar    1  UNL1        0.0383
     18 C         141.5805  142.0193  167.6148 C.ar    1  UNL1        0.0230
     19 C         141.4717  141.9261  169.1079 C.ar    1  UNL1        0.1219
     20 C         140.4320  141.0419  169.7304 C.ar    1  UNL1        0.0230
     21 C         139.5013  140.2509  168.8598 C.ar    1  UNL1        0.0383
     22 S         142.4024  142.7171  169.9786 S.O2    1  UNL1        0.0572
     23 N         143.3331  143.5080  170.8493 N.3     1  UNL1       -0.2035
     24 O         141.3584  142.7609  171.0548 O.2     1  UNL1       -0.1532
     25 O         143.4464  142.6732  168.9025 O.2     1  UNL1       -0.1532
     26 H         142.8748  143.7154  171.7366 H       1  UNL1        0.1442
     27 H         143.5778  144.3805  170.3809 H       1  UNL1        0.1442
@<TRIPOS>BOND
     1    13    14    1
     2    14    12    1
     3    12    10    1
     4    10    11    2
     5    10     4    1
     6     4     5    1
     7     5     6    1
     8     6     7    1
     9     7     3    1
    10     3     2    1
    11     2     1    1
    12     1    15    1
    13    15    16    1
    14    16    17   ar
    15    17    18   ar
    16    18    19   ar
    17    19    22    1
    18    22    23    1
    19    22    24    2
    20    22    25    2
    21    19    20   ar
    22    20    21   ar
    23     7     8    1
    24     8     9    1
    25     9     4    1
    26    21    16   ar
    27    23    26    1
    28    23    27    1
@<TRIPOS>MOLECULE
*****
 27 28 0 0 0
SMALL
GASTEIGER

@<TRIPOS>ATOM
      1 C         137.9774  138.9166  166.4621 C.3     1  UNL1        0.2068
      2 C         138.5777  137.7557  165.7258 C.3     1  UNL1        0.0646
      3 C         139.3891  137.9921  164.4866 C.3     1  UNL1        0.0759
      4 C         138.7822  141.7471  162.0821 C.3     1  UNL1        0.1018
      5 C         137.7806  140.6336  161.9996 C.3     1  UNL1        0.0285
      6 C         137.9829  139.3819  162.8011 C.3     1  UNL1        0.0727
      7 N         139.1868  139.2438  163.6851 N.3     1  UNL1       -0.2725
      8 C         140.1884  140.3573  163.7676 C.3     1  UNL1        0.0727
      9 C         139.9861  141.6089  162.9661 C.3     1  UNL1        0.0285
     10 C         138.5799  142.9987  161.2805 C.2     1  UNL1        0.3165
     11 O         138.3107  142.9108  159.8075 O.2     1  UNL1       -0.2501
     12 O         138.6467  144.3383  161.9520 O.3     1  UNL1       -0.4485
     13 C         138.8092  144.7004  164.5196 C.3     1  UNL1        0.0513
     14 C         137.9797  144.5461  163.2794 C.3     1  UNL1        0.2086
     15 O         138.1436  139.0288  167.9487 O.3     1  UNL1       -0.4754
     16 C         139.1904  139.9387  168.5198 C.ar    1  UNL1        0.1386
     17 C         139.0929  140.3919  169.9463 C.ar    1  UNL1        0.0383
     18 C         140.1398  141.3018  170.5174 C.ar    1  UNL1        0.0230
     19 C         141.2841  141.7585  169.6620 C.ar    1  UNL1        0.1219
     20 C         141.3817  141.3054  168.2353 C.ar    1  UNL1        0.0230
     21 C         140.3348  140.3954  167.6642 C.ar    1  UNL1        0.0383
     22 S         142.3310  142.6685  170.2331 S.O2    1  UNL1        0.0572
     23 N         143.3778  143.5784  170.8041 N.3     1  UNL1       -0.2035
     24 O         141.3288  143.7829  170.2944 O.2     1  UNL1       -0.1532
     25 O         143.3331  141.5540  170.1717 O.2     1  UNL1       -0.1532
     26 H         142.9726  144.4991  170.9729 H       1  UNL1        0.1442
     27 H         144.1513  143.6630  170.1446 H       1  UNL1        0.1442
@<TRIPOS>BOND
     1    13    14    1
     2    14    12    1
     3    12    10    1
     4    10    11    2
     5    10     4    1
     6     4     5    1
     7     5     6    1
     8     6     7    1
     9     7     3    1
    10     3     2    1
    11     2     1    1
    12     1    15    1
    13    15    16    1
    14    16    17   ar
    15    17    18   ar
    16    18    19   ar
    17    19    22    1
    18    22    23    1
    19    22    24    2
    20    22    25    2
    21    19    20   ar
    22    20    21   ar
    23     7     8    1
    24     8     9    1
    25     9     4    1
    26    21    16   ar
    27    23    26    1
    28    23    27    1
@<TRIPOS>MOLECULE
*****
 27 28 0 0 0
SMALL
GASTEIGER

@<TRIPOS>ATOM
      1 C         138.6686  138.7981  165.0919 C.3     1  UNL1        0.2068
      2 C         138.2460  139.1260  166.4933 C.3     1  UNL1        0.0646
      3 C         139.2341  139.7140  167.4565 C.3     1  UNL1        0.0759
      4 C         142.7245  142.1035  165.9210 C.3     1  UNL1        0.1018
      5 C         141.4041  142.7737  166.1604 C.3     1  UNL1        0.0285
      6 C         140.2406  141.9772  166.6723 C.3     1  UNL1        0.0727
      7 N         140.3976  140.5105  166.9447 N.3     1  UNL1       -0.2725
      8 C         141.7180  139.8404  166.7052 C.3     1  UNL1        0.0727
      9 C         142.8814  140.6369  166.1934 C.3     1  UNL1        0.0285
     10 C         143.8879  142.9000  165.4091 C.2     1  UNL1        0.3165
     11 O         144.6739  143.7672  166.3473 O.2     1  UNL1       -0.2501
     12 O         144.2653  142.8293  163.9591 O.3     1  UNL1       -0.4485
     13 C         145.2736  140.4713  163.5431 C.3     1  UNL1        0.0513
     14 C         145.4113  141.9649  163.5237 C.3     1  UNL1        0.2086
     15 O         138.0761  139.5472  163.9352 O.3     1  UNL1       -0.4754
     16 C         138.5387  140.9407  163.6281 C.ar    1  UNL1        0.1386
     17 C         139.9046  141.1674  163.0513 C.ar    1  UNL1        0.0383
     18 C         140.3672  142.5609  162.7441 C.ar    1  UNL1        0.0230
     19 C         139.4639  143.7275  163.0138 C.ar    1  UNL1        0.1219
     20 C         138.0978  143.5008  163.5906 C.ar    1  UNL1        0.0230
     21 C         137.6353  142.1074  163.8978 C.ar    1  UNL1        0.0383
     22 S         139.9265  145.1210  162.7066 S.O2    1  UNL1        0.0572
     23 N         140.3890  146.5144  162.3995 N.3     1  UNL1       -0.2035
     24 O         138.5859  145.4348  162.1112 O.2     1  UNL1       -0.1532
     25 O         141.2670  144.8072  163.3020 O.2     1  UNL1       -0.1532
     26 H         139.6345  147.0314  161.9481 H       1  UNL1        0.1442
     27 H         141.1950  146.4753  161.7756 H       1  UNL1        0.1442
@<TRIPOS>BOND
     1    13    14    1
     2    14    12    1
     3    12    10    1
     4    10    11    2
     5    10     4    1
     6     4     5    1
     7     5     6    1
     8     6     7    1
     9     7     3    1
    10     3     2    1
    11     2     1    1
    12     1    15    1
    13    15    16    1
    14    16    17   ar
    15    17    18   ar
    16    18    19   ar
    17    19    22    1
    18    22    23    1
    19    22    24    2
    20    22    25    2
    21    19    20   ar
    22    20    21   ar
    23     7     8    1
    24     8     9    1
    25     9     4    1
    26    21    16   ar
    27    23    26    1
    28    23    27    1
@<TRIPOS>MOLECULE
*****
 27 28 0 0 0
SMALL
GASTEIGER

@<TRIPOS>ATOM
      1 C         142.6625  138.3512  160.8697 C.3     1  UNL1        0.2068
      2 C         143.7513  138.2290  161.8942 C.3     1  UNL1        0.0646
      3 C         144.0976  139.4009  162.7641 C.3     1  UNL1        0.0759
      4 C         141.9555  140.0112  166.6742 C.3     1  UNL1        0.1018
      5 C         141.5133  140.7599  165.4520 C.3     1  UNL1        0.0285
      6 C         142.2273  140.5564  164.1486 C.3     1  UNL1        0.0727
      7 N         143.3835  139.6043  164.0675 N.3     1  UNL1       -0.2725
      8 C         143.8257  138.8557  165.2897 C.3     1  UNL1        0.0727
      9 C         143.1117  139.0591  166.5931 C.3     1  UNL1        0.0285
     10 C         141.2415  140.2146  167.9776 C.2     1  UNL1        0.3165
     11 O         140.0596  141.1355  168.0496 O.2     1  UNL1       -0.2501
     12 O         141.7093  139.4972  169.2090 O.3     1  UNL1       -0.4485
     13 C         143.3006  141.4707  169.7775 C.3     1  UNL1        0.0513
     14 C         142.6457  140.1774  170.1632 C.3     1  UNL1        0.2086
     15 O         141.3760  137.6011  161.0495 O.3     1  UNL1       -0.4754
     16 C         140.5721  137.7805  162.3031 C.ar    1  UNL1        0.1386
     17 C         140.9778  137.0730  163.5619 C.ar    1  UNL1        0.0383
     18 C         140.1738  137.2524  164.8155 C.ar    1  UNL1        0.0230
     19 C         138.9642  138.1394  164.8103 C.ar    1  UNL1        0.1219
     20 C         138.5585  138.8470  163.5514 C.ar    1  UNL1        0.0230
     21 C         139.3624  138.6676  162.2978 C.ar    1  UNL1        0.0383
     22 S         138.1603  138.3188  166.0639 S.O2    1  UNL1        0.0572
     23 N         137.3564  138.4982  167.3175 N.3     1  UNL1       -0.2035
     24 O         138.1619  136.8341  166.2774 O.2     1  UNL1       -0.1532
     25 O         138.1588  139.8035  165.8504 O.2     1  UNL1       -0.1532
     26 H         137.1752  137.5870  167.7386 H       1  UNL1        0.1442
     27 H         136.4706  138.9506  167.0916 H       1  UNL1        0.1442
@<TRIPOS>BOND
     1    13    14    1
     2    14    12    1
     3    12    10    1
     4    10    11    2
     5    10     4    1
     6     4     5    1
     7     5     6    1
     8     6     7    1
     9     7     3    1
    10     3     2    1
    11     2     1    1
    12     1    15    1
    13    15    16    1
    14    16    17   ar
    15    17    18   ar
    16    18    19   ar
    17    19    22    1
    18    22    23    1
    19    22    24    2
    20    22    25    2
    21    19    20   ar
    22    20    21   ar
    23     7     8    1
    24     8     9    1
    25     9     4    1
    26    21    16   ar
    27    23    26    1
    28    23    27    1
@<TRIPOS>MOLECULE
*****
 27 28 0 0 0
SMALL
GASTEIGER

@<TRIPOS>ATOM
      1 C         141.4674  138.4008  165.3032 C.3     1  UNL1        0.2068
      2 C         140.9327  137.2297  164.5333 C.3     1  UNL1        0.0646
      3 C         140.5160  137.3999  163.1025 C.3     1  UNL1        0.0759
      4 C         138.8214  141.3272  161.7044 C.3     1  UNL1        0.1018
      5 C         140.2987  141.0786  161.6295 C.3     1  UNL1        0.0285
      6 C         140.8636  139.7695  162.0955 C.3     1  UNL1        0.0727
      7 N         139.9511  138.7090  162.6365 N.3     1  UNL1       -0.2725
      8 C         138.4738  138.9576  162.7113 C.3     1  UNL1        0.0727
      9 C         137.9089  140.2667  162.2453 C.3     1  UNL1        0.0285
     10 C         138.2565  142.6363  161.2384 C.2     1  UNL1        0.3165
     11 O         138.2472  142.9711  159.7763 O.2     1  UNL1       -0.2501
     12 O         137.7009  143.6105  162.2344 O.3     1  UNL1       -0.4485
     13 C         138.1105  144.2358  164.7227 C.3     1  UNL1        0.0513
     14 C         138.5879  144.1799  163.3017 C.3     1  UNL1        0.2086
     15 O         140.5451  139.2241  166.1527 O.3     1  UNL1       -0.4754
     16 C         141.1082  140.1704  167.1712 C.ar    1  UNL1        0.1386
     17 C         142.2653  139.7490  168.0275 C.ar    1  UNL1        0.0383
     18 C         142.8285  140.6953  169.0461 C.ar    1  UNL1        0.0230
     19 C         142.2345  142.0631  169.2082 C.ar    1  UNL1        0.1219
     20 C         141.0773  142.4846  168.3518 C.ar    1  UNL1        0.0230
     21 C         140.5142  141.5383  167.3333 C.ar    1  UNL1        0.0383
     22 S         142.7976  143.0094  170.2267 S.O2    1  UNL1        0.0572
     23 N         143.3608  143.9557  171.2452 N.3     1  UNL1       -0.2035
     24 O         144.1370  142.3454  170.1031 O.2     1  UNL1       -0.1532
     25 O         141.4583  143.6733  170.3504 O.2     1  UNL1       -0.1532
     26 H         144.3471  143.7445  171.3968 H       1  UNL1        0.1442
     27 H         142.8521  143.8523  172.1233 H       1  UNL1        0.1442
@<TRIPOS>BOND
     1    13    14    1
     2    14    12    1
     3    12    10    1
     4    10    11    2
     5    10     4    1
     6     4     5    1
     7     5     6    1
     8     6     7    1
     9     7     3    1
    10     3     2    1
    11     2     1    1
    12     1    15    1
    13    15    16    1
    14    16    17   ar
    15    17    18   ar
    16    18    19   ar
    17    19    22    1
    18    22    23    1
    19    22    24    2
    20    22    25    2
    21    19    20   ar
    22    20    21   ar
    23     7     8    1
    24     8     9    1
    25     9     4    1
    26    21    16   ar
    27    23    26    1
    28    23    27    1
@<TRIPOS>MOLECULE
*****
 27 28 0 0 0
SMALL
GASTEIGER

@<TRIPOS>ATOM
      1 C         139.5783  138.2971  163.9896 C.3     1  UNL1        0.2068
      2 C         138.5685  138.8310  163.0174 C.3     1  UNL1        0.0646
      3 C         137.7687  140.0523  163.3617 C.3     1  UNL1        0.0759
      4 C         139.3897  144.1429  162.4188 C.3     1  UNL1        0.1018
      5 C         138.2509  143.9915  163.3832 C.3     1  UNL1        0.0285
      6 C         137.7105  142.6279  163.6975 C.3     1  UNL1        0.0727
      7 N         138.3090  141.4159  163.0474 N.3     1  UNL1       -0.2725
      8 C         139.4478  141.5673  162.0830 C.3     1  UNL1        0.0727
      9 C         139.9881  142.9309  161.7687 C.3     1  UNL1        0.0285
     10 C         139.9300  145.5065  162.1045 C.2     1  UNL1        0.3165
     11 O         139.1334  146.4512  161.2543 O.2     1  UNL1       -0.2501
     12 O         141.2669  145.9253  162.6403 O.3     1  UNL1       -0.4485
     13 C         143.2706  144.8301  163.8797 C.3     1  UNL1        0.0513
     14 C         141.8316  145.2529  163.8565 C.3     1  UNL1        0.2086
     15 O         140.6218  139.2091  164.5637 O.3     1  UNL1       -0.4754
     16 C         140.6447  139.4888  166.0373 C.ar    1  UNL1        0.1386
     17 C         139.3588  139.6922  166.7822 C.ar    1  UNL1        0.0383
     18 C         139.3817  139.9719  168.2557 C.ar    1  UNL1        0.0230
     19 C         140.6906  140.0481  168.9843 C.ar    1  UNL1        0.1219
     20 C         141.9767  139.8447  168.2394 C.ar    1  UNL1        0.0230
     21 C         141.9537  139.5650  166.7659 C.ar    1  UNL1        0.0383
     22 S         140.7136  140.3278  170.4578 S.O2    1  UNL1        0.0572
     23 N         140.7365  140.6075  171.9313 N.3     1  UNL1       -0.2035
     24 O         139.2669  140.7208  170.4058 O.2     1  UNL1       -0.1532
     25 O         142.1602  139.9348  170.5099 O.2     1  UNL1       -0.1532
     26 H         139.8143  140.9228  172.2320 H       1  UNL1        0.1442
     27 H         141.4252  141.3335  172.1289 H       1  UNL1        0.1442
@<TRIPOS>BOND
     1    13    14    1
     2    14    12    1
     3    12    10    1
     4    10    11    2
     5    10     4    1
     6     4     5    1
     7     5     6    1
     8     6     7    1
     9     7     3    1
    10     3     2    1
    11     2     1    1
    12     1    15    1
    13    15    16    1
    14    16    17   ar
    15    17    18   ar
    16    18    19   ar
    17    19    22    1
    18    22    23    1
    19    22    24    2
    20    22    25    2
    21    19    20   ar
    22    20    21   ar
    23     7     8    1
    24     8     9    1
    25     9     4    1
    26    21    16   ar
    27    23    26    1
    28    23    27    1
@<TRIPOS>MOLECULE
*****
 27 28 0 0 0
SMALL
GASTEIGER

@<TRIPOS>ATOM
      1 C         138.5596  138.3808  162.8094 C.3     1  UNL1        0.2068
      2 C         139.8839  137.6776  162.8505 C.3     1  UNL1        0.0646
      3 C         140.9162  137.9606  161.7997 C.3     1  UNL1        0.0759
      4 C         142.4712  142.1464  161.2428 C.3     1  UNL1        0.1018
      5 C         141.3722  141.6312  160.3616 C.3     1  UNL1        0.0285
      6 C         140.8538  140.2359  160.5473 C.3     1  UNL1        0.0727
      7 N         141.4346  139.3559  161.6141 N.3     1  UNL1       -0.2725
      8 C         142.5337  139.8711  162.4952 C.3     1  UNL1        0.0727
      9 C         143.0520  141.2664  162.3096 C.3     1  UNL1        0.0285
     10 C         142.9896  143.5417  161.0571 C.2     1  UNL1        0.3165
     11 O         142.3718  144.4405  160.0273 O.2     1  UNL1       -0.2501
     12 O         144.1257  144.0383  161.9012 O.3     1  UNL1       -0.4485
     13 C         143.8819  144.1929  164.4833 C.3     1  UNL1        0.0513
     14 C         143.8469  144.8467  163.1336 C.3     1  UNL1        0.2086
     15 O         138.2599  139.4736  163.7923 O.3     1  UNL1       -0.4754
     16 C         138.6601  140.8868  163.4877 C.ar    1  UNL1        0.1386
     17 C         139.7751  141.5326  164.2555 C.ar    1  UNL1        0.0383
     18 C         140.1753  142.9458  163.9509 C.ar    1  UNL1        0.0230
     19 C         139.4605  143.7131  162.8784 C.ar    1  UNL1        0.1219
     20 C         138.3455  143.0673  162.1105 C.ar    1  UNL1        0.0230
     21 C         137.9452  141.6541  162.4152 C.ar    1  UNL1        0.0383
     22 S         139.8608  145.1263  162.5738 S.O2    1  UNL1        0.0572
     23 N         140.2610  146.5394  162.2692 N.3     1  UNL1       -0.2035
     24 O         139.2379  145.0096  161.2143 O.2     1  UNL1       -0.1532
     25 O         140.4837  145.2429  163.9334 O.2     1  UNL1       -0.1532
     26 H         139.9523  146.7850  161.3285 H       1  UNL1        0.1442
     27 H         141.2757  146.6255  162.3274 H       1  UNL1        0.1442
@<TRIPOS>BOND
     1    13    14    1
     2    14    12    1
     3    12    10    1
     4    10    11    2
     5    10     4    1
     6     4     5    1
     7     5     6    1
     8     6     7    1
     9     7     3    1
    10     3     2    1
    11     2     1    1
    12     1    15    1
    13    15    16    1
    14    16    17   ar
    15    17    18   ar
    16    18    19   ar
    17    19    22    1
    18    22    23    1
    19    22    24    2
    20    22    25    2
    21    19    20   ar
    22    20    21   ar
    23     7     8    1
    24     8     9    1
    25     9     4    1
    26    21    16   ar
    27    23    26    1
    28    23    27    1
@<TRIPOS>MOLECULE
*****
 27 28 0 0 0
SMALL
GASTEIGER

@<TRIPOS>ATOM
      1 C         139.0395  138.8225  165.2160 C.3     1  UNL1        0.2068
      2 C         138.9944  137.6931  164.2299 C.3     1  UNL1        0.0646
      3 C         139.8311  137.7495  162.9863 C.3     1  UNL1        0.0759
      4 C         143.2719  140.6372  162.7182 C.3     1  UNL1        0.1018
      5 C         143.4333  139.3452  163.4629 C.3     1  UNL1        0.0285
      6 C         142.2864  138.3826  163.5523 C.3     1  UNL1        0.0727
      7 N         140.9780  138.7120  162.8969 N.3     1  UNL1       -0.2725
      8 C         140.8166  140.0040  162.1521 C.3     1  UNL1        0.0727
      9 C         141.9635  140.9666  162.0628 C.3     1  UNL1        0.0285
     10 C         144.4189  141.5997  162.6288 C.2     1  UNL1        0.3165
     11 O         145.7840  141.1849  163.0918 O.2     1  UNL1       -0.2501
     12 O         144.2007  142.9771  162.0765 O.3     1  UNL1       -0.4485
     13 C         144.0205  143.9985  164.4586 C.3     1  UNL1        0.0513
     14 C         144.2567  144.1679  162.9870 C.3     1  UNL1        0.2086
     15 O         138.0473  139.9433  165.1186 O.3     1  UNL1       -0.4754
     16 C         138.4641  141.2665  164.5483 C.ar    1  UNL1        0.1386
     17 C         137.5965  141.9537  163.5359 C.ar    1  UNL1        0.0383
     18 C         138.0133  143.2770  162.9656 C.ar    1  UNL1        0.0230
     19 C         139.2979  143.9130  163.4076 C.ar    1  UNL1        0.1219
     20 C         140.1656  143.2258  164.4200 C.ar    1  UNL1        0.0230
     21 C         139.7487  141.9026  164.9903 C.ar    1  UNL1        0.0383
     22 S         139.7147  145.2362  162.8373 S.O2    1  UNL1        0.0572
     23 N         140.1316  146.5595  162.2669 N.3     1  UNL1       -0.2035
     24 O         138.4562  145.2815  162.0224 O.2     1  UNL1       -0.1532
     25 O         140.9732  145.1910  163.6522 O.2     1  UNL1       -0.1532
     26 H         139.4192  146.8884  161.6152 H       1  UNL1        0.1442
     27 H         141.0191  146.4535  161.7755 H       1  UNL1        0.1442
@<TRIPOS>BOND
     1    13    14    1
     2    14    12    1
     3    12    10    1
     4    10    11    2
     5    10     4    1
     6     4     5    1
     7     5     6    1
     8     6     7    1
     9     7     3    1
    10     3     2    1
    11     2     1    1
    12     1    15    1
    13    15    16    1
    14    16    17   ar
    15    17    18   ar
    16    18    19   ar
    17    19    22    1
    18    22    23    1
    19    22    24    2
    20    22    25    2
    21    19    20   ar
    22    20    21   ar
    23     7     8    1
    24     8     9    1
    25     9     4    1
    26    21    16   ar
    27    23    26    1
    28    23    27    1
