@<TRIPOS>MOLECULE
*****
 25 26 0 0 0
SMALL
GASTEIGER

@<TRIPOS>ATOM
      1 C         139.0882  139.9404  165.2263 C.ar    1  UNL1        0.1327
      2 N         138.1175  138.8710  165.6314 N.ar    1  UNL1       -0.1993
      3 C         137.8892  138.5767  167.0844 C.ar    1  UNL1        0.2148
      4 N         136.9184  137.5072  167.4894 N.pl3   1  UNL1       -0.3274
      5 N         138.6315  139.3516  168.1323 N.ar    1  UNL1       -0.2138
      6 C         139.6023  140.4211  167.7273 C.ar    1  UNL1        0.0891
      7 C         140.3447  141.1960  168.7752 C.ar    1  UNL1        0.0489
      8 C         141.3154  142.2654  168.3702 C.ar    1  UNL1        0.1416
      9 F         142.0579  143.0404  169.4181 F       1  UNL1       -0.2041
     10 C         141.5438  142.5598  166.9172 C.ar    1  UNL1        0.0298
     11 C         140.8014  141.7848  165.8692 C.ar    1  UNL1        0.0066
     12 C         139.8307  140.7154  166.2743 C.ar    1  UNL1        0.0493
     13 H         136.4311  136.9986  166.8016 H       1  UNL1        0.1452
     14 H         136.7685  137.3140  168.4431 H       1  UNL1        0.1452
     15 N         139.3166  140.2348  163.7733 N.pl3   1  UNL1       -0.3195
     16 H         140.2326  140.2543  163.4131 H       1  UNL1        0.1481
     17 C         138.1493  140.4994  162.8693 C.3     1  UNL1        0.0729
     18 C         137.3356  141.7478  163.0408 C.3     1  UNL1        0.0196
     19 C         138.0129  143.0451  163.3700 C.3     1  UNL1        0.0017
     20 C         138.7008  144.7577  165.1986 C.3     1  UNL1        0.0000
     21 C         137.7529  143.7137  164.6874 C.3     1  UNL1        0.0001
     22 C         137.7956  139.5155  161.7936 C.3     1  UNL1        0.0512
     23 C         138.1129  138.0606  161.9741 C.3     1  UNL1        0.1389
     24 O         139.5155  137.6323  162.2889 O.3     1  UNL1       -0.3819
     25 H         140.0915  137.8317  161.5344 H       1  UNL1        0.2104
@<TRIPOS>BOND
     1    20    21    1
     2    21    19    1
     3    19    18    1
     4    17    18    1
     5    17    22    1
     6    22    23    1
     7    23    24    1
     8    17    15    1
     9    15     1    1
    10     1     2   ar
    11     2     3   ar
    12     3     4    1
    13     3     5   ar
    14     5     6   ar
    15     6     7   ar
    16     7     8   ar
    17     8     9    1
    18     8    10   ar
    19    10    11   ar
    20    11    12   ar
    21    12     1   ar
    22    12     6   ar
    23    24    25    1
    24    15    16    1
    25     4    13    1
    26     4    14    1
@<TRIPOS>MOLECULE
*****
 25 26 0 0 0
SMALL
GASTEIGER

@<TRIPOS>ATOM
      1 C         140.0628  140.3262  167.8100 C.ar    1  UNL1        0.1327
      2 N         138.8599  139.8033  168.5376 N.ar    1  UNL1       -0.1993
      3 C         138.7086  140.0482  170.0097 C.ar    1  UNL1        0.2148
      4 N         137.5055  139.5253  170.7372 N.pl3   1  UNL1       -0.3274
      5 N         139.7602  140.8161  170.7542 N.ar    1  UNL1       -0.2138
      6 C         140.9633  141.3390  170.0266 C.ar    1  UNL1        0.0891
      7 C         142.0149  142.1069  170.7711 C.ar    1  UNL1        0.0489
      8 C         143.2179  142.6298  170.0436 C.ar    1  UNL1        0.1416
      9 F         144.2696  143.3977  170.7881 F       1  UNL1       -0.2041
     10 C         143.3692  142.3848  168.5715 C.ar    1  UNL1        0.0298
     11 C         142.3175  141.6170  167.8269 C.ar    1  UNL1        0.0066
     12 C         141.1146  141.0941  168.5545 C.ar    1  UNL1        0.0493
     13 H         136.8153  139.0213  170.2486 H       1  UNL1        0.1452
     14 H         137.4062  139.6861  171.7034 H       1  UNL1        0.1452
     15 N         140.2142  140.0812  166.3379 N.pl3   1  UNL1       -0.3195
     16 H         140.7440  139.3155  166.0182 H       1  UNL1        0.1481
     17 C         139.5582  141.0028  165.3529 C.3     1  UNL1        0.0729
     18 C         140.1487  142.3550  165.0827 C.3     1  UNL1        0.0196
     19 C         139.7030  143.5419  165.8845 C.3     1  UNL1        0.0017
     20 C         138.7625  144.6451  163.7285 C.3     1  UNL1        0.0000
     21 C         139.0060  144.6849  165.2081 C.3     1  UNL1        0.0001
     22 C         138.3118  140.5724  164.6379 C.3     1  UNL1        0.0512
     23 C         137.9268  141.2241  163.3430 C.3     1  UNL1        0.1389
     24 O         136.4874  141.2659  162.9232 O.3     1  UNL1       -0.3819
     25 H         136.1748  140.3641  162.7503 H       1  UNL1        0.2104
@<TRIPOS>BOND
     1    20    21    1
     2    21    19    1
     3    19    18    1
     4    17    18    1
     5    17    22    1
     6    22    23    1
     7    23    24    1
     8    17    15    1
     9    15     1    1
    10     1     2   ar
    11     2     3   ar
    12     3     4    1
    13     3     5   ar
    14     5     6   ar
    15     6     7   ar
    16     7     8   ar
    17     8     9    1
    18     8    10   ar
    19    10    11   ar
    20    11    12   ar
    21    12     1   ar
    22    12     6   ar
    23    24    25    1
    24    15    16    1
    25     4    13    1
    26     4    14    1
@<TRIPOS>MOLECULE
*****
 25 26 0 0 0
SMALL
GASTEIGER

@<TRIPOS>ATOM
      1 C         139.1116  139.7954  165.4435 C.ar    1  UNL1        0.1327
      2 N         138.0869  138.7753  165.8427 N.ar    1  UNL1       -0.1993
      3 C         137.7800  138.5484  167.2933 C.ar    1  UNL1        0.2148
      4 N         136.7553  137.5283  167.6925 N.pl3   1  UNL1       -0.3274
      5 N         138.4978  139.3417  168.3447 N.ar    1  UNL1       -0.2138
      6 C         139.5225  140.3618  167.9456 C.ar    1  UNL1        0.0891
      7 C         140.2403  141.1551  168.9970 C.ar    1  UNL1        0.0489
      8 C         141.2649  142.1752  168.5978 C.ar    1  UNL1        0.1416
      9 F         141.9828  142.9685  169.6493 F       1  UNL1       -0.2041
     10 C         141.5719  142.4020  167.1472 C.ar    1  UNL1        0.0298
     11 C         140.8541  141.6088  166.0957 C.ar    1  UNL1        0.0066
     12 C         139.8294  140.5887  166.4949 C.ar    1  UNL1        0.0493
     13 H         136.2842  137.0076  167.0023 H       1  UNL1        0.1452
     14 H         136.5538  137.3793  168.6445 H       1  UNL1        0.1452
     15 N         139.4185  140.0223  163.9928 N.pl3   1  UNL1       -0.3195
     16 H         139.9014  140.8332  163.7128 H       1  UNL1        0.1481
     17 C         138.9897  139.0136  162.9688 C.3     1  UNL1        0.0729
     18 C         139.5392  137.6186  163.0142 C.3     1  UNL1        0.0196
     19 C         141.0060  137.3972  163.2371 C.3     1  UNL1        0.0017
     20 C         142.4468  138.1969  165.2457 C.3     1  UNL1        0.0000
     21 C         141.5296  137.1843  164.6266 C.3     1  UNL1        0.0001
     22 C         138.0113  139.3999  161.8994 C.3     1  UNL1        0.0512
     23 C         137.4397  140.7864  161.8712 C.3     1  UNL1        0.1389
     24 O         136.6942  141.3146  163.0608 O.3     1  UNL1       -0.3819
     25 H         135.8780  140.8049  163.1833 H       1  UNL1        0.2104
@<TRIPOS>BOND
     1    20    21    1
     2    21    19    1
     3    19    18    1
     4    17    18    1
     5    17    22    1
     6    22    23    1
     7    23    24    1
     8    17    15    1
     9    15     1    1
    10     1     2   ar
    11     2     3   ar
    12     3     4    1
    13     3     5   ar
    14     5     6   ar
    15     6     7   ar
    16     7     8   ar
    17     8     9    1
    18     8    10   ar
    19    10    11   ar
    20    11    12   ar
    21    12     1   ar
    22    12     6   ar
    23    24    25    1
    24    15    16    1
    25     4    13    1
    26     4    14    1
@<TRIPOS>MOLECULE
*****
 25 26 0 0 0
SMALL
GASTEIGER

@<TRIPOS>ATOM
      1 C         139.6055  140.4136  166.8854 C.ar    1  UNL1        0.1327
      2 N         139.3567  139.8341  168.2463 N.ar    1  UNL1       -0.1993
      3 C         140.3644  140.0289  169.3402 C.ar    1  UNL1        0.2148
      4 N         140.1155  139.4494  170.7012 N.pl3   1  UNL1       -0.3274
      5 N         141.6209  140.8033  169.0731 N.ar    1  UNL1       -0.2138
      6 C         141.8698  141.3829  167.7121 C.ar    1  UNL1        0.0891
      7 C         143.1263  142.1573  167.4450 C.ar    1  UNL1        0.0489
      8 C         143.3752  142.7368  166.0840 C.ar    1  UNL1        0.1416
      9 F         144.6318  143.5112  165.8169 F       1  UNL1       -0.2041
     10 C         142.3674  142.5419  164.9902 C.ar    1  UNL1        0.0298
     11 C         141.1109  141.7675  165.2573 C.ar    1  UNL1        0.0066
     12 C         140.8621  141.1880  166.6182 C.ar    1  UNL1        0.0493
     13 H         139.2908  138.9411  170.8765 H       1  UNL1        0.1452
     14 H         140.7769  139.5773  171.4191 H       1  UNL1        0.1452
     15 N         138.5978  140.2187  165.7915 N.pl3   1  UNL1       -0.3195
     16 H         137.7947  140.7870  165.7551 H       1  UNL1        0.1481
     17 C         138.8136  139.1579  164.7532 C.3     1  UNL1        0.0729
     18 C         139.3560  137.8175  165.1519 C.3     1  UNL1        0.0196
     19 C         140.6774  137.3532  164.6149 C.3     1  UNL1        0.0017
     20 C         142.8564  138.6710  164.0996 C.3     1  UNL1        0.0000
     21 C         141.9468  137.9992  165.0852 C.3     1  UNL1        0.0001
     22 C         138.4870  139.4376  163.3161 C.3     1  UNL1        0.0512
     23 C         138.0208  140.8027  162.9049 C.3     1  UNL1        0.1389
     24 O         136.6579  141.2826  163.3075 O.3     1  UNL1       -0.3819
     25 H         135.9822  140.7416  162.8698 H       1  UNL1        0.2104
@<TRIPOS>BOND
     1    20    21    1
     2    21    19    1
     3    19    18    1
     4    17    18    1
     5    17    22    1
     6    22    23    1
     7    23    24    1
     8    17    15    1
     9    15     1    1
    10     1     2   ar
    11     2     3   ar
    12     3     4    1
    13     3     5   ar
    14     5     6   ar
    15     6     7   ar
    16     7     8   ar
    17     8     9    1
    18     8    10   ar
    19    10    11   ar
    20    11    12   ar
    21    12     1   ar
    22    12     6   ar
    23    24    25    1
    24    15    16    1
    25     4    13    1
    26     4    14    1
@<TRIPOS>MOLECULE
*****
 25 26 0 0 0
SMALL
GASTEIGER

@<TRIPOS>ATOM
      1 C         141.1799  142.3058  165.6557 C.ar    1  UNL1        0.1327
      2 N         142.2694  142.7243  166.5979 N.ar    1  UNL1       -0.1993
      3 C         142.3720  142.0918  167.9542 C.ar    1  UNL1        0.2148
      4 N         143.4616  142.5103  168.8964 N.pl3   1  UNL1       -0.3274
      5 N         141.3851  141.0408  168.3682 N.ar    1  UNL1       -0.2138
      6 C         140.2956  140.6223  167.4259 C.ar    1  UNL1        0.0891
      7 C         139.3087  139.5713  167.8400 C.ar    1  UNL1        0.0489
      8 C         138.2192  139.1528  166.8977 C.ar    1  UNL1        0.1416
      9 F         137.2323  138.1017  167.3117 F       1  UNL1       -0.2041
     10 C         138.1166  139.7853  165.5415 C.ar    1  UNL1        0.0298
     11 C         139.1034  140.8363  165.1275 C.ar    1  UNL1        0.0066
     12 C         140.1929  141.2548  166.0697 C.ar    1  UNL1        0.0493
     13 H         144.1093  143.2001  168.6246 H       1  UNL1        0.1452
     14 H         143.5289  142.0952  169.7866 H       1  UNL1        0.1452
     15 N         141.0772  142.9383  164.2994 N.pl3   1  UNL1       -0.3195
     16 H         141.2228  142.3957  163.4910 H       1  UNL1        0.1481
     17 C         140.7529  144.3975  164.1750 C.3     1  UNL1        0.0729
     18 C         139.4445  144.9214  164.6885 C.3     1  UNL1        0.0196
     19 C         138.1726  144.1840  164.3909 C.3     1  UNL1        0.0017
     20 C         137.9255  142.7668  162.2275 C.3     1  UNL1        0.0000
     21 C         137.6986  144.0477  162.9743 C.3     1  UNL1        0.0001
     22 C         141.7369  145.3329  163.5370 C.3     1  UNL1        0.0512
     23 C         143.1718  144.9230  163.3859 C.3     1  UNL1        0.1389
     24 O         143.9061  144.3210  164.5471 O.3     1  UNL1       -0.3819
     25 H         143.9997  144.9838  165.2492 H       1  UNL1        0.2104
@<TRIPOS>BOND
     1    20    21    1
     2    21    19    1
     3    19    18    1
     4    17    18    1
     5    17    22    1
     6    22    23    1
     7    23    24    1
     8    17    15    1
     9    15     1    1
    10     1     2   ar
    11     2     3   ar
    12     3     4    1
    13     3     5   ar
    14     5     6   ar
    15     6     7   ar
    16     7     8   ar
    17     8     9    1
    18     8    10   ar
    19    10    11   ar
    20    11    12   ar
    21    12     1   ar
    22    12     6   ar
    23    24    25    1
    24    15    16    1
    25     4    13    1
    26     4    14    1
@<TRIPOS>MOLECULE
*****
 25 26 0 0 0
SMALL
GASTEIGER

@<TRIPOS>ATOM
      1 C         140.1512  140.4751  163.1333 C.ar    1  UNL1        0.1327
      2 N         139.2464  139.7436  162.1868 N.ar    1  UNL1       -0.1993
      3 C         137.8594  140.2537  161.9299 C.ar    1  UNL1        0.2148
      4 N         136.9545  139.5220  160.9833 N.pl3   1  UNL1       -0.3274
      5 N         137.3772  141.4954  162.6195 N.ar    1  UNL1       -0.2138
      6 C         138.2821  142.2271  163.5661 C.ar    1  UNL1        0.0891
      7 C         137.8000  143.4688  164.2557 C.ar    1  UNL1        0.0489
      8 C         138.7048  144.2004  165.2022 C.ar    1  UNL1        0.1416
      9 F         138.2227  145.4422  165.8919 F       1  UNL1       -0.2041
     10 C         140.0918  143.6903  165.4591 C.ar    1  UNL1        0.0298
     11 C         140.5740  142.4485  164.7695 C.ar    1  UNL1        0.0066
     12 C         139.6691  141.7169  163.8230 C.ar    1  UNL1        0.0493
     13 H         137.2710  138.7070  160.5307 H       1  UNL1        0.1452
     14 H         136.0442  139.8568  160.8146 H       1  UNL1        0.1452
     15 N         141.5382  139.9650  163.3902 N.pl3   1  UNL1       -0.3195
     16 H         142.2660  140.1806  162.7632 H       1  UNL1        0.1481
     17 C         141.8164  139.1265  164.6024 C.3     1  UNL1        0.0729
     18 C         142.8276  139.5810  165.6128 C.3     1  UNL1        0.0196
     19 C         142.5468  139.4238  167.0780 C.3     1  UNL1        0.0017
     20 C         140.1174  140.0896  167.7143 C.3     1  UNL1        0.0000
     21 C         141.5926  140.3567  167.7630 C.3     1  UNL1        0.0001
     22 C         141.0833  137.8334  164.8043 C.3     1  UNL1        0.0512
     23 C         140.9123  136.8814  163.6578 C.3     1  UNL1        0.1389
     24 O         141.4634  137.2281  162.3065 O.3     1  UNL1       -0.3819
     25 H         140.9896  137.9965  161.9515 H       1  UNL1        0.2104
@<TRIPOS>BOND
     1    20    21    1
     2    21    19    1
     3    19    18    1
     4    17    18    1
     5    17    22    1
     6    22    23    1
     7    23    24    1
     8    17    15    1
     9    15     1    1
    10     1     2   ar
    11     2     3   ar
    12     3     4    1
    13     3     5   ar
    14     5     6   ar
    15     6     7   ar
    16     7     8   ar
    17     8     9    1
    18     8    10   ar
    19    10    11   ar
    20    11    12   ar
    21    12     1   ar
    22    12     6   ar
    23    24    25    1
    24    15    16    1
    25     4    13    1
    26     4    14    1
@<TRIPOS>MOLECULE
*****
 25 26 0 0 0
SMALL
GASTEIGER

@<TRIPOS>ATOM
      1 C         140.4034  141.4678  166.7566 C.ar    1  UNL1        0.1327
      2 N         140.0871  141.4036  168.2214 N.ar    1  UNL1       -0.1993
      3 C         139.2714  140.2675  168.7636 C.ar    1  UNL1        0.2148
      4 N         138.9552  140.2034  170.2285 N.pl3   1  UNL1       -0.3274
      5 N         138.7720  139.1956  167.8409 N.ar    1  UNL1       -0.2138
      6 C         139.0882  139.2597  166.3759 C.ar    1  UNL1        0.0891
      7 C         138.5888  138.1877  165.4532 C.ar    1  UNL1        0.0489
      8 C         138.9050  138.2519  163.9884 C.ar    1  UNL1        0.1416
      9 F         138.4056  137.1799  163.0656 F       1  UNL1       -0.2041
     10 C         139.7207  139.3880  163.4463 C.ar    1  UNL1        0.0298
     11 C         140.2202  140.4599  164.3690 C.ar    1  UNL1        0.0066
     12 C         139.9039  140.3958  165.8338 C.ar    1  UNL1        0.0493
     13 H         139.2830  140.9070  170.8341 H       1  UNL1        0.1452
     14 H         138.4198  139.4577  170.5844 H       1  UNL1        0.1452
     15 N         141.2191  142.6039  166.2145 N.pl3   1  UNL1       -0.3195
     16 H         142.1456  142.7345  166.5204 H       1  UNL1        0.1481
     17 C         140.6230  143.5409  165.2062 C.3     1  UNL1        0.0729
     18 C         139.2590  144.1212  165.4360 C.3     1  UNL1        0.0196
     19 C         138.0774  143.5786  164.6880 C.3     1  UNL1        0.0017
     20 C         137.9504  143.0060  162.1570 C.3     1  UNL1        0.0000
     21 C         137.8274  144.0028  163.2711 C.3     1  UNL1        0.0001
     22 C         141.3910  143.8977  163.9680 C.3     1  UNL1        0.0512
     23 C         141.7511  145.3280  163.6949 C.3     1  UNL1        0.1389
     24 O         140.8707  146.1688  162.8187 O.3     1  UNL1       -0.3819
     25 H         140.8888  145.8211  161.9133 H       1  UNL1        0.2104
@<TRIPOS>BOND
     1    20    21    1
     2    21    19    1
     3    19    18    1
     4    17    18    1
     5    17    22    1
     6    22    23    1
     7    23    24    1
     8    17    15    1
     9    15     1    1
    10     1     2   ar
    11     2     3   ar
    12     3     4    1
    13     3     5   ar
    14     5     6   ar
    15     6     7   ar
    16     7     8   ar
    17     8     9    1
    18     8    10   ar
    19    10    11   ar
    20    11    12   ar
    21    12     1   ar
    22    12     6   ar
    23    24    25    1
    24    15    16    1
    25     4    13    1
    26     4    14    1
@<TRIPOS>MOLECULE
*****
 25 26 0 0 0
SMALL
GASTEIGER

@<TRIPOS>ATOM
      1 C         140.9296  141.5782  164.4956 C.ar    1  UNL1        0.1327
      2 N         141.7311  141.4915  163.2307 N.ar    1  UNL1       -0.1993
      3 C         141.7381  140.2214  162.4327 C.ar    1  UNL1        0.2148
      4 N         142.5396  140.1348  161.1677 N.pl3   1  UNL1       -0.3274
      5 N         140.9436  139.0379  162.8997 N.ar    1  UNL1       -0.2138
      6 C         140.1421  139.1245  164.1647 C.ar    1  UNL1        0.0891
      7 C         139.3476  137.9411  164.6316 C.ar    1  UNL1        0.0489
      8 C         138.5461  138.0277  165.8966 C.ar    1  UNL1        0.1416
      9 F         137.7515  136.8442  166.3636 F       1  UNL1       -0.2041
     10 C         138.5391  139.2978  166.6945 C.ar    1  UNL1        0.0298
     11 C         139.3336  140.4813  166.2276 C.ar    1  UNL1        0.0066
     12 C         140.1351  140.3947  164.9626 C.ar    1  UNL1        0.0493
     13 H         143.0611  140.9116  160.8613 H       1  UNL1        0.1452
     14 H         142.5442  139.3012  160.6440 H       1  UNL1        0.1452
     15 N         140.9226  142.8483  165.2936 N.pl3   1  UNL1       -0.3195
     16 H         141.2951  142.8592  166.2048 H       1  UNL1        0.1481
     17 C         140.3482  144.1018  164.7031 C.3     1  UNL1        0.0729
     18 C         138.9435  144.5112  165.0336 C.3     1  UNL1        0.0196
     19 C         137.7903  143.6604  164.5904 C.3     1  UNL1        0.0017
     20 C         137.3517  141.6090  163.0576 C.3     1  UNL1        0.0000
     21 C         137.8037  143.0288  163.2299 C.3     1  UNL1        0.0001
     22 C         141.1784  144.9460  163.7822 C.3     1  UNL1        0.0512
     23 C         140.6162  145.3963  162.4665 C.3     1  UNL1        0.1389
     24 O         140.2024  146.8256  162.2775 O.3     1  UNL1       -0.3819
     25 H         139.4465  147.0221  162.8528 H       1  UNL1        0.2104
@<TRIPOS>BOND
     1    20    21    1
     2    21    19    1
     3    19    18    1
     4    17    18    1
     5    17    22    1
     6    22    23    1
     7    23    24    1
     8    17    15    1
     9    15     1    1
    10     1     2   ar
    11     2     3   ar
    12     3     4    1
    13     3     5   ar
    14     5     6   ar
    15     6     7   ar
    16     7     8   ar
    17     8     9    1
    18     8    10   ar
    19    10    11   ar
    20    11    12   ar
    21    12     1   ar
    22    12     6   ar
    23    24    25    1
    24    15    16    1
    25     4    13    1
    26     4    14    1
@<TRIPOS>MOLECULE
*****
 25 26 0 0 0
SMALL
GASTEIGER

@<TRIPOS>ATOM
      1 C         142.3005  139.6630  164.8178 C.ar    1  UNL1        0.1327
      2 N         142.7707  138.9924  163.5611 N.ar    1  UNL1       -0.1993
      3 C         141.9084  137.9631  162.8925 C.ar    1  UNL1        0.2148
      4 N         142.3786  137.2925  161.6358 N.pl3   1  UNL1       -0.3274
      5 N         140.5759  137.6044  163.4805 N.ar    1  UNL1       -0.2138
      6 C         140.1057  138.2750  164.7373 C.ar    1  UNL1        0.0891
      7 C         138.7732  137.9163  165.3253 C.ar    1  UNL1        0.0489
      8 C         138.3031  138.5869  166.5820 C.ar    1  UNL1        0.1416
      9 F         136.9705  138.2282  167.1701 F       1  UNL1       -0.2041
     10 C         139.1654  139.6162  167.2506 C.ar    1  UNL1        0.0298
     11 C         140.4978  139.9748  166.6625 C.ar    1  UNL1        0.0066
     12 C         140.9680  139.3043  165.4059 C.ar    1  UNL1        0.0493
     13 H         143.2532  137.5280  161.2498 H       1  UNL1        0.1452
     14 H         141.8126  136.6170  161.1969 H       1  UNL1        0.1452
     15 N         143.1628  140.6922  165.4864 N.pl3   1  UNL1       -0.3195
     16 H         143.5786  140.4958  166.3569 H       1  UNL1        0.1481
     17 C         143.3917  142.0207  164.8287 C.3     1  UNL1        0.0729
     18 C         142.2232  142.8851  164.4576 C.3     1  UNL1        0.0196
     19 C         141.1611  143.1868  165.4730 C.3     1  UNL1        0.0017
     20 C         139.1165  144.7028  164.9521 C.3     1  UNL1        0.0000
     21 C         139.7325  143.3381  165.0416 C.3     1  UNL1        0.0001
     22 C         144.7890  142.4850  164.5421 C.3     1  UNL1        0.0512
     23 C         145.5994  141.8106  163.4752 C.3     1  UNL1        0.1389
     24 O         145.4686  140.3325  163.2559 O.3     1  UNL1       -0.3819
     25 H         145.8003  139.8594  164.0350 H       1  UNL1        0.2104
@<TRIPOS>BOND
     1    20    21    1
     2    21    19    1
     3    19    18    1
     4    17    18    1
     5    17    22    1
     6    22    23    1
     7    23    24    1
     8    17    15    1
     9    15     1    1
    10     1     2   ar
    11     2     3   ar
    12     3     4    1
    13     3     5   ar
    14     5     6   ar
    15     6     7   ar
    16     7     8   ar
    17     8     9    1
    18     8    10   ar
    19    10    11   ar
    20    11    12   ar
    21    12     1   ar
    22    12     6   ar
    23    24    25    1
    24    15    16    1
    25     4    13    1
    26     4    14    1
