@<TRIPOS>MOLECULE
*****
 38 42 0 0 0
SMALL
GASTEIGER

@<TRIPOS>ATOM
      1 C         140.8218  142.1393  167.4815 C.3     1  UNL1        0.1204
      2 C         139.8866  141.1144  166.9113 C.ar    1  UNL1        0.0909
      3 N         139.3022  140.0560  167.7991 N.ar    1  UNL1       -0.2453
      4 C         138.3670  139.0312  167.2288 C.ar    1  UNL1        0.0986
      5 C         138.0163  139.0648  165.7708 C.ar    1  UNL1        0.0221
      6 C         138.6007  140.1232  164.8830 C.ar    1  UNL1        0.0200
      7 C         138.4400  140.4061  163.4187 C.ar    1  UNL1        0.0173
      8 C         137.6406  139.7263  162.3469 C.ar    1  UNL1        0.0015
      9 C         137.6770  140.2461  160.9404 C.ar    1  UNL1        0.0001
     10 C         138.5129  141.4458  160.6057 C.ar    1  UNL1        0.0015
     11 C         139.3123  142.1256  161.6774 C.ar    1  UNL1        0.0172
     12 C         139.2759  141.6058  163.0839 C.ar    1  UNL1        0.0603
     13 N         139.9531  142.0643  164.3413 N.ar    1  UNL1       -0.3179
     14 C         139.5359  141.1480  165.4532 C.ar    1  UNL1        0.0754
     15 C         140.8842  143.2338  164.4651 C.3     1  UNL1        0.1914
     16 C         140.3922  144.6191  164.1673 C.2     1  UNL1        0.2425
     17 N         139.1338  145.1224  164.8101 N.am    1  UNL1       -0.3272
     18 O         141.1584  145.5012  163.2267 O.2     1  UNL1       -0.2732
     19 H         138.6308  144.5435  165.4275 H       1  UNL1        0.1450
     20 H         138.8108  146.0316  164.6146 H       1  UNL1        0.1450
     21 N         142.2656  141.7973  167.7012 N.3     1  UNL1       -0.2640
     22 C         142.9375  140.7819  166.8251 C.3     1  UNL1        0.0981
     23 C         142.8241  139.3213  167.1468 C.3     1  UNL1        0.0224
     24 C         143.4961  138.3059  166.2708 C.3     1  UNL1        0.0065
     25 C         144.2814  138.7513  165.0729 C.3     1  UNL1        0.0277
     26 C         144.3948  140.2119  164.7511 C.ar    1  UNL1       -0.0073
     27 C         145.1802  140.6572  163.5532 C.ar    1  UNL1       -0.0015
     28 C         145.2936  142.1179  163.2314 C.ar    1  UNL1        0.0203
     29 C         144.6216  143.1333  164.1075 C.ar    1  UNL1        0.0985
     30 N         143.8363  142.6880  165.3054 N.ar    1  UNL1       -0.2471
     31 C         143.7229  141.2272  165.6272 C.ar    1  UNL1        0.0695
     32 C         143.0375  142.4707  168.7970 C.3     1  UNL1        0.0728
     33 C         142.7899  142.0961  170.2282 C.3     1  UNL1        0.0188
     34 C         142.1090  140.8007  170.5575 C.3     1  UNL1        0.0183
     35 N         139.8679  139.5685  171.0144 N.3     1  UNL1       -0.3211
     36 C         140.7118  140.8054  171.1032 C.3     1  UNL1        0.0652
     37 H         138.9547  139.7494  171.4310 H       1  UNL1        0.1189
     38 H         140.3259  138.8077  171.5162 H       1  UNL1        0.1189
@<TRIPOS>BOND
     1    35    36    1
     2    36    34    1
     3    34    33    1
     4    33    32    1
     5    32    21    1
     6    21     1    1
     7     1     2    1
     8     2     3   ar
     9     3     4   ar
    10     4     5   ar
    11     5     6   ar
    12     6     7   ar
    13     7     8   ar
    14     8     9   ar
    15     9    10   ar
    16    10    11   ar
    17    11    12   ar
    18    12    13   ar
    19    13    15    1
    20    15    16    1
    21    16    17   am
    22    16    18    2
    23    13    14   ar
    24    22    21    1
    25    22    23    1
    26    23    24    1
    27    24    25    1
    28    25    26    1
    29    26    27   ar
    30    27    28   ar
    31    28    29   ar
    32    29    30   ar
    33    30    31   ar
    34    14     2   ar
    35    31    22    1
    36    14     6   ar
    37    31    26   ar
    38    12     7   ar
    39    35    37    1
    40    35    38    1
    41    17    19    1
    42    17    20    1
@<TRIPOS>MOLECULE
*****
 38 42 0 0 0
SMALL
GASTEIGER

@<TRIPOS>ATOM
      1 C         141.3557  142.0319  167.0579 C.3     1  UNL1        0.1204
      2 C         142.2704  142.5859  166.0061 C.ar    1  UNL1        0.0909
      3 N         143.7048  142.8747  166.3361 N.ar    1  UNL1       -0.2453
      4 C         144.6195  143.4287  165.2843 C.ar    1  UNL1        0.0986
      5 C         144.0998  143.6939  163.9024 C.ar    1  UNL1        0.0221
      6 C         142.6654  143.4051  163.5724 C.ar    1  UNL1        0.0200
      7 C         141.8750  143.5634  162.3073 C.ar    1  UNL1        0.0173
      8 C         142.2518  144.0640  160.9445 C.ar    1  UNL1        0.0015
      9 C         141.2253  144.1084  159.8516 C.ar    1  UNL1        0.0001
     10 C         139.8221  143.6522  160.1216 C.ar    1  UNL1        0.0015
     11 C         139.4454  143.1516  161.4845 C.ar    1  UNL1        0.0172
     12 C         140.4718  143.1072  162.5773 C.ar    1  UNL1        0.0603
     13 N         140.3950  142.6670  164.0092 N.ar    1  UNL1       -0.3179
     14 C         141.7507  142.8511  164.6242 C.ar    1  UNL1        0.0754
     15 C         139.1764  142.1359  164.7041 C.3     1  UNL1        0.1914
     16 C         137.8096  142.5111  164.2132 C.2     1  UNL1        0.2425
     17 N         136.9161  141.4674  163.6113 N.am    1  UNL1       -0.3272
     18 O         137.3363  143.9302  164.3240 O.2     1  UNL1       -0.2732
     19 H         137.2267  140.5360  163.5385 H       1  UNL1        0.1450
     20 H         136.0190  141.7138  163.2891 H       1  UNL1        0.1450
     21 N         141.3750  140.5653  167.3717 N.3     1  UNL1       -0.2640
     22 C         140.4024  139.6417  166.7001 C.3     1  UNL1        0.0981
     23 C         139.0384  139.4324  167.2880 C.3     1  UNL1        0.0224
     24 C         138.0659  138.5089  166.6163 C.3     1  UNL1        0.0065
     25 C         138.4573  137.7946  165.3566 C.3     1  UNL1        0.0277
     26 C         139.8212  138.0040  164.7687 C.ar    1  UNL1       -0.0073
     27 C         140.2126  137.2898  163.5091 C.ar    1  UNL1       -0.0015
     28 C         141.5766  137.4991  162.9211 C.ar    1  UNL1        0.0203
     29 C         142.5492  138.4226  163.5928 C.ar    1  UNL1        0.0985
     30 N         142.1578  139.1369  164.8524 N.ar    1  UNL1       -0.2471
     31 C         140.7938  138.9275  165.4404 C.ar    1  UNL1        0.0695
     32 C         142.3669  140.0221  168.3573 C.3     1  UNL1        0.0728
     33 C         141.9034  139.5419  169.7006 C.3     1  UNL1        0.0188
     34 C         140.8149  140.2768  170.4253 C.3     1  UNL1        0.0183
     35 N         141.9945  142.0866  171.8685 N.3     1  UNL1       -0.3211
     36 C         141.0050  141.7157  170.8040 C.3     1  UNL1        0.0652
     37 H         141.9933  143.0986  171.9961 H       1  UNL1        0.1189
     38 H         142.9262  141.7804  171.5882 H       1  UNL1        0.1189
@<TRIPOS>BOND
     1    35    36    1
     2    36    34    1
     3    34    33    1
     4    33    32    1
     5    32    21    1
     6    21     1    1
     7     1     2    1
     8     2     3   ar
     9     3     4   ar
    10     4     5   ar
    11     5     6   ar
    12     6     7   ar
    13     7     8   ar
    14     8     9   ar
    15     9    10   ar
    16    10    11   ar
    17    11    12   ar
    18    12    13   ar
    19    13    15    1
    20    15    16    1
    21    16    17   am
    22    16    18    2
    23    13    14   ar
    24    22    21    1
    25    22    23    1
    26    23    24    1
    27    24    25    1
    28    25    26    1
    29    26    27   ar
    30    27    28   ar
    31    28    29   ar
    32    29    30   ar
    33    30    31   ar
    34    14     2   ar
    35    31    22    1
    36    14     6   ar
    37    31    26   ar
    38    12     7   ar
    39    35    37    1
    40    35    38    1
    41    17    19    1
    42    17    20    1
@<TRIPOS>MOLECULE
*****
 38 42 0 0 0
SMALL
GASTEIGER

@<TRIPOS>ATOM
      1 C         139.9921  141.3988  166.2709 C.3     1  UNL1        0.1204
      2 C         139.5930  142.4053  165.2327 C.ar    1  UNL1        0.0909
      3 N         139.3061  143.8221  165.6330 N.ar    1  UNL1       -0.2453
      4 C         138.9069  144.8285  164.5949 C.ar    1  UNL1        0.0986
      5 C         138.7946  144.4181  163.1564 C.ar    1  UNL1        0.0221
      6 C         139.0815  143.0013  162.7562 C.ar    1  UNL1        0.0200
      7 C         139.0540  142.3090  161.4258 C.ar    1  UNL1        0.0173
      8 C         138.7304  142.7994  160.0457 C.ar    1  UNL1        0.0015
      9 C         138.7889  141.8554  158.8814 C.ar    1  UNL1        0.0001
     10 C         139.1711  140.4211  159.0973 C.ar    1  UNL1        0.0015
     11 C         139.4948  139.9307  160.4774 C.ar    1  UNL1        0.0172
     12 C         139.4362  140.8747  161.6416 C.ar    1  UNL1        0.0603
     13 N         139.6999  140.6805  163.1055 N.ar    1  UNL1       -0.3179
     14 C         139.4807  141.9949  163.7943 C.ar    1  UNL1        0.0754
     15 C         140.1107  139.3973  163.7647 C.3     1  UNL1        0.1914
     16 C         139.0934  138.3241  164.0162 C.2     1  UNL1        0.2425
     17 N         138.6452  137.4373  162.8926 N.am    1  UNL1       -0.3272
     18 O         138.5243  138.1376  165.3916 O.2     1  UNL1       -0.2732
     19 H         139.0186  137.5597  161.9899 H       1  UNL1        0.1450
     20 H         137.9775  136.7330  163.0577 H       1  UNL1        0.1450
     21 N         141.3763  141.4254  166.8480 N.3     1  UNL1       -0.2640
     22 C         142.4576  140.5799  166.2429 C.3     1  UNL1        0.0981
     23 C         142.6423  139.1618  166.6952 C.3     1  UNL1        0.0224
     24 C         143.7235  138.3163  166.0902 C.3     1  UNL1        0.0065
     25 C         144.6201  138.8891  165.0327 C.3     1  UNL1        0.0277
     26 C         144.4354  140.3072  164.5804 C.ar    1  UNL1       -0.0073
     27 C         145.3319  140.8799  163.5230 C.ar    1  UNL1       -0.0015
     28 C         145.1473  142.2981  163.0706 C.ar    1  UNL1        0.0203
     29 C         144.0660  143.1437  163.6757 C.ar    1  UNL1        0.0985
     30 N         143.1694  142.5709  164.7331 N.ar    1  UNL1       -0.2471
     31 C         143.3541  141.1527  165.1855 C.ar    1  UNL1        0.0695
     32 C         141.6793  142.2975  168.0303 C.3     1  UNL1        0.0728
     33 C         143.0816  142.3887  168.5552 C.3     1  UNL1        0.0188
     34 C         143.4421  141.7248  169.8510 C.3     1  UNL1        0.0183
     35 N         142.2529  140.6457  171.8933 N.3     1  UNL1       -0.3211
     36 C         142.5504  140.6630  170.4232 C.3     1  UNL1        0.0652
     37 H         141.6355  139.8622  172.1060 H       1  UNL1        0.1189
     38 H         141.7975  141.5191  172.1583 H       1  UNL1        0.1189
@<TRIPOS>BOND
     1    35    36    1
     2    36    34    1
     3    34    33    1
     4    33    32    1
     5    32    21    1
     6    21     1    1
     7     1     2    1
     8     2     3   ar
     9     3     4   ar
    10     4     5   ar
    11     5     6   ar
    12     6     7   ar
    13     7     8   ar
    14     8     9   ar
    15     9    10   ar
    16    10    11   ar
    17    11    12   ar
    18    12    13   ar
    19    13    15    1
    20    15    16    1
    21    16    17   am
    22    16    18    2
    23    13    14   ar
    24    22    21    1
    25    22    23    1
    26    23    24    1
    27    24    25    1
    28    25    26    1
    29    26    27   ar
    30    27    28   ar
    31    28    29   ar
    32    29    30   ar
    33    30    31   ar
    34    14     2   ar
    35    31    22    1
    36    14     6   ar
    37    31    26   ar
    38    12     7   ar
    39    35    37    1
    40    35    38    1
    41    17    19    1
    42    17    20    1
@<TRIPOS>MOLECULE
*****
 38 42 0 0 0
SMALL
GASTEIGER

@<TRIPOS>ATOM
      1 C         139.4498  141.7061  162.6212 C.3     1  UNL1        0.1204
      2 C         139.3567  140.6633  163.6953 C.ar    1  UNL1        0.0909
      3 N         139.0308  139.2439  163.3363 N.ar    1  UNL1       -0.2453
      4 C         138.9377  138.2010  164.4104 C.ar    1  UNL1        0.0986
      5 C         139.1706  138.5776  165.8436 C.ar    1  UNL1        0.0221
      6 C         139.4965  139.9971  166.2027 C.ar    1  UNL1        0.0200
      7 C         139.7745  140.6610  167.5187 C.ar    1  UNL1        0.0173
      8 C         139.8207  140.1300  168.9208 C.ar    1  UNL1        0.0015
      9 C         140.1318  141.0523  170.0621 C.ar    1  UNL1        0.0001
     10 C         140.3967  142.5055  169.8013 C.ar    1  UNL1        0.0015
     11 C         140.3505  143.0364  168.3992 C.ar    1  UNL1        0.0172
     12 C         140.0394  142.1142  167.2579 C.ar    1  UNL1        0.0603
     13 N         139.9251  142.3483  165.7807 N.ar    1  UNL1       -0.3179
     14 C         139.5896  141.0399  165.1285 C.ar    1  UNL1        0.0754
     15 C         140.1134  143.6606  165.0789 C.3     1  UNL1        0.1914
     16 C         138.9437  144.5776  164.8767 C.2     1  UNL1        0.2425
     17 N         138.2594  144.6375  163.5433 N.am    1  UNL1       -0.3272
     18 O         138.4583  145.4348  166.0080 O.2     1  UNL1       -0.2732
     19 H         138.5779  144.0750  162.8008 H       1  UNL1        0.1450
     20 H         137.4916  145.2394  163.4106 H       1  UNL1        0.1450
     21 N         140.6590  141.7649  161.7357 N.3     1  UNL1       -0.2640
     22 C         141.9550  142.2983  162.2704 C.3     1  UNL1        0.0981
     23 C         142.2611  143.7633  162.1706 C.3     1  UNL1        0.0224
     24 C         143.5571  144.2968  162.7053 C.3     1  UNL1        0.0065
     25 C         144.5469  143.3653  163.3397 C.3     1  UNL1        0.0277
     26 C         144.2408  141.9003  163.4395 C.ar    1  UNL1       -0.0073
     27 C         145.2306  140.9688  164.0739 C.ar    1  UNL1       -0.0015
     28 C         144.9245  139.5037  164.1737 C.ar    1  UNL1        0.0203
     29 C         143.6285  138.9702  163.6390 C.ar    1  UNL1        0.0985
     30 N         142.6386  139.9017  163.0045 N.ar    1  UNL1       -0.2471
     31 C         142.9448  141.3668  162.9048 C.ar    1  UNL1        0.0695
     32 C         140.5723  141.2900  160.3154 C.3     1  UNL1        0.0728
     33 C         140.5658  139.8204  160.0150 C.3     1  UNL1        0.0188
     34 C         139.2651  139.1037  159.8042 C.3     1  UNL1        0.0183
     35 N         136.9695  139.5738  160.9263 N.3     1  UNL1       -0.3211
     36 C         137.9733  139.8648  159.8504 C.3     1  UNL1        0.0652
     37 H         136.1573  140.1789  160.8061 H       1  UNL1        0.1189
     38 H         137.3901  139.7465  161.8394 H       1  UNL1        0.1189
@<TRIPOS>BOND
     1    35    36    1
     2    36    34    1
     3    34    33    1
     4    33    32    1
     5    32    21    1
     6    21     1    1
     7     1     2    1
     8     2     3   ar
     9     3     4   ar
    10     4     5   ar
    11     5     6   ar
    12     6     7   ar
    13     7     8   ar
    14     8     9   ar
    15     9    10   ar
    16    10    11   ar
    17    11    12   ar
    18    12    13   ar
    19    13    15    1
    20    15    16    1
    21    16    17   am
    22    16    18    2
    23    13    14   ar
    24    22    21    1
    25    22    23    1
    26    23    24    1
    27    24    25    1
    28    25    26    1
    29    26    27   ar
    30    27    28   ar
    31    28    29   ar
    32    29    30   ar
    33    30    31   ar
    34    14     2   ar
    35    31    22    1
    36    14     6   ar
    37    31    26   ar
    38    12     7   ar
    39    35    37    1
    40    35    38    1
    41    17    19    1
    42    17    20    1
@<TRIPOS>MOLECULE
*****
 38 42 0 0 0
SMALL
GASTEIGER

@<TRIPOS>ATOM
      1 C         140.9482  139.5209  163.6748 C.3     1  UNL1        0.1204
      2 C         140.1103  139.4170  164.9145 C.ar    1  UNL1        0.0909
      3 N         138.7181  138.8642  164.8347 N.ar    1  UNL1       -0.2453
      4 C         137.8802  138.7603  166.0744 C.ar    1  UNL1        0.0986
      5 C         138.4343  139.2091  167.3941 C.ar    1  UNL1        0.0221
      6 C         139.8265  139.7619  167.4740 C.ar    1  UNL1        0.0200
      7 C         140.6362  140.2797  168.6256 C.ar    1  UNL1        0.0173
      8 C         140.3277  140.4200  170.0868 C.ar    1  UNL1        0.0015
      9 C         141.3576  140.9842  171.0199 C.ar    1  UNL1        0.0001
     10 C         142.6961  141.4082  170.4919 C.ar    1  UNL1        0.0015
     11 C         143.0046  141.2679  169.0307 C.ar    1  UNL1        0.0172
     12 C         141.9746  140.7037  168.0975 C.ar    1  UNL1        0.0603
     13 N         141.9921  140.4479  166.6196 N.ar    1  UNL1       -0.3179
     14 C         140.6644  139.8658  166.2342 C.ar    1  UNL1        0.0754
     15 C         143.1363  140.7254  165.6903 C.3     1  UNL1        0.1914
     16 C         144.0665  139.6175  165.2940 C.2     1  UNL1        0.2425
     17 N         145.0664  139.8338  164.1970 N.am    1  UNL1       -0.3272
     18 O         143.9968  138.2930  165.9947 O.2     1  UNL1       -0.2732
     19 H         145.1122  140.7031  163.7371 H       1  UNL1        0.1450
     20 H         145.6769  139.1066  163.9370 H       1  UNL1        0.1450
     21 N         140.7058  140.6318  162.6967 N.3     1  UNL1       -0.2640
     22 C         140.4174  142.0179  163.1923 C.3     1  UNL1        0.0981
     23 C         139.0264  142.3898  163.6127 C.3     1  UNL1        0.0224
     24 C         138.7380  143.7758  164.1084 C.3     1  UNL1        0.0065
     25 C         139.8407  144.7900  164.1836 C.3     1  UNL1        0.0277
     26 C         141.2316  144.4181  163.7631 C.ar    1  UNL1       -0.0073
     27 C         142.3342  145.4324  163.8383 C.ar    1  UNL1       -0.0015
     28 C         143.7252  145.0605  163.4178 C.ar    1  UNL1        0.0203
     29 C         144.0137  143.6744  162.9222 C.ar    1  UNL1        0.0985
     30 N         142.9111  142.6602  162.8470 N.ar    1  UNL1       -0.2471
     31 C         141.5200  143.0321  163.2675 C.ar    1  UNL1        0.0695
     32 C         140.7518  140.3568  161.2227 C.3     1  UNL1        0.0728
     33 C         140.5480  138.9606  160.7137 C.3     1  UNL1        0.0188
     34 C         139.1663  138.3804  160.6479 C.3     1  UNL1        0.0183
     35 N         137.4605  139.6319  162.1557 N.3     1  UNL1       -0.3211
     36 C         137.9700  139.2740  160.7911 C.3     1  UNL1        0.0652
     37 H         136.6480  140.2420  162.0660 H       1  UNL1        0.1189
     38 H         138.1927  140.1151  162.6761 H       1  UNL1        0.1189
@<TRIPOS>BOND
     1    35    36    1
     2    36    34    1
     3    34    33    1
     4    33    32    1
     5    32    21    1
     6    21     1    1
     7     1     2    1
     8     2     3   ar
     9     3     4   ar
    10     4     5   ar
    11     5     6   ar
    12     6     7   ar
    13     7     8   ar
    14     8     9   ar
    15     9    10   ar
    16    10    11   ar
    17    11    12   ar
    18    12    13   ar
    19    13    15    1
    20    15    16    1
    21    16    17   am
    22    16    18    2
    23    13    14   ar
    24    22    21    1
    25    22    23    1
    26    23    24    1
    27    24    25    1
    28    25    26    1
    29    26    27   ar
    30    27    28   ar
    31    28    29   ar
    32    29    30   ar
    33    30    31   ar
    34    14     2   ar
    35    31    22    1
    36    14     6   ar
    37    31    26   ar
    38    12     7   ar
    39    35    37    1
    40    35    38    1
    41    17    19    1
    42    17    20    1
@<TRIPOS>MOLECULE
*****
 38 42 0 0 0
SMALL
GASTEIGER

@<TRIPOS>ATOM
      1 C         141.2694  139.4231  163.5099 C.3     1  UNL1        0.1204
      2 C         140.3351  139.3444  164.6807 C.ar    1  UNL1        0.0909
      3 N         138.9277  138.8634  164.4861 N.ar    1  UNL1       -0.2453
      4 C         137.9934  138.7847  165.6569 C.ar    1  UNL1        0.0986
      5 C         138.4665  139.1869  167.0224 C.ar    1  UNL1        0.0221
      6 C         139.8739  139.6678  167.2170 C.ar    1  UNL1        0.0200
      7 C         140.6177  140.1284  168.4354 C.ar    1  UNL1        0.0173
      8 C         140.2057  140.2639  169.8713 C.ar    1  UNL1        0.0015
      9 C         141.1878  140.7627  170.8894 C.ar    1  UNL1        0.0001
     10 C         142.5818  141.1262  170.4716 C.ar    1  UNL1        0.0015
     11 C         142.9938  140.9907  169.0357 C.ar    1  UNL1        0.0172
     12 C         142.0117  140.4919  168.0176 C.ar    1  UNL1        0.0603
     13 N         142.1294  140.2559  166.5410 N.ar    1  UNL1       -0.3179
     14 C         140.8082  139.7466  166.0461 C.ar    1  UNL1        0.0754
     15 C         143.3536  140.4883  165.7058 C.3     1  UNL1        0.1914
     16 C         144.2308  139.3335  165.3231 C.2     1  UNL1        0.2425
     17 N         145.0695  139.4078  164.0817 N.am    1  UNL1       -0.3272
     18 O         144.2695  138.1041  166.1817 O.2     1  UNL1       -0.2732
     19 H         145.0442  140.2147  163.5181 H       1  UNL1        0.1450
     20 H         145.6453  138.6498  163.8305 H       1  UNL1        0.1450
     21 N         141.1649  140.5646  162.5424 N.3     1  UNL1       -0.2640
     22 C         141.3582  141.9731  163.0206 C.3     1  UNL1        0.0981
     23 C         142.7097  142.6172  162.9296 C.3     1  UNL1        0.0224
     24 C         142.9030  144.0257  163.4078 C.3     1  UNL1        0.0065
     25 C         141.7447  144.7902  163.9770 C.3     1  UNL1        0.0277
     26 C         140.3931  144.1460  164.0680 C.ar    1  UNL1       -0.0073
     27 C         139.2348  144.9105  164.6372 C.ar    1  UNL1       -0.0015
     28 C         137.8832  144.2664  164.7282 C.ar    1  UNL1        0.0203
     29 C         137.6899  142.8578  164.2500 C.ar    1  UNL1        0.0985
     30 N         138.8482  142.0933  163.6808 N.ar    1  UNL1       -0.2471
     31 C         140.1999  142.7375  163.5898 C.ar    1  UNL1        0.0695
     32 C         140.8671  140.2975  161.0967 C.3     1  UNL1        0.0728
     33 C         139.9808  139.1497  160.7131 C.3     1  UNL1        0.0188
     34 C         138.7490  139.3948  159.8930 C.3     1  UNL1        0.0183
     35 N         137.3959  139.9049  162.0514 N.3     1  UNL1       -0.3211
     36 C         137.4896  139.8703  160.5548 C.3     1  UNL1        0.0652
     37 H         136.4771  140.2519  162.3266 H       1  UNL1        0.1189
     38 H         138.1179  140.5222  162.4231 H       1  UNL1        0.1189
@<TRIPOS>BOND
     1    35    36    1
     2    36    34    1
     3    34    33    1
     4    33    32    1
     5    32    21    1
     6    21     1    1
     7     1     2    1
     8     2     3   ar
     9     3     4   ar
    10     4     5   ar
    11     5     6   ar
    12     6     7   ar
    13     7     8   ar
    14     8     9   ar
    15     9    10   ar
    16    10    11   ar
    17    11    12   ar
    18    12    13   ar
    19    13    15    1
    20    15    16    1
    21    16    17   am
    22    16    18    2
    23    13    14   ar
    24    22    21    1
    25    22    23    1
    26    23    24    1
    27    24    25    1
    28    25    26    1
    29    26    27   ar
    30    27    28   ar
    31    28    29   ar
    32    29    30   ar
    33    30    31   ar
    34    14     2   ar
    35    31    22    1
    36    14     6   ar
    37    31    26   ar
    38    12     7   ar
    39    35    37    1
    40    35    38    1
    41    17    19    1
    42    17    20    1
@<TRIPOS>MOLECULE
*****
 38 42 0 0 0
SMALL
GASTEIGER

@<TRIPOS>ATOM
      1 C         139.1671  143.0217  160.1475 C.3     1  UNL1        0.1204
      2 C         138.6980  143.0196  161.5723 C.ar    1  UNL1        0.0909
      3 N         138.1838  144.2839  162.1944 N.ar    1  UNL1       -0.2453
      4 C         137.7147  144.2818  163.6192 C.ar    1  UNL1        0.0986
      5 C         137.7598  143.0153  164.4217 C.ar    1  UNL1        0.0221
      6 C         138.2740  141.7510  163.7996 C.ar    1  UNL1        0.0200
      7 C         138.4361  140.3608  164.3390 C.ar    1  UNL1        0.0173
      8 C         138.1389  139.7646  165.6829 C.ar    1  UNL1        0.0015
      9 C         138.4110  138.3113  165.9354 C.ar    1  UNL1        0.0001
     10 C         138.9803  137.4541  164.8440 C.ar    1  UNL1        0.0015
     11 C         139.2775  138.0503  163.5000 C.ar    1  UNL1        0.0172
     12 C         139.0054  139.5036  163.2475 C.ar    1  UNL1        0.0603
     13 N         139.1951  140.3642  162.0337 N.ar    1  UNL1       -0.3179
     14 C         138.7431  141.7531  162.3748 C.ar    1  UNL1        0.0754
     15 C         139.7411  139.9146  160.7108 C.3     1  UNL1        0.1914
     16 C         138.8065  139.4623  159.6284 C.2     1  UNL1        0.2425
     17 N         137.3530  139.8272  159.6915 N.am    1  UNL1       -0.3272
     18 O         139.3255  138.6449  158.4826 O.2     1  UNL1       -0.2732
     19 H         137.0123  140.3636  160.4434 H       1  UNL1        0.1450
     20 H         136.7396  139.5302  158.9810 H       1  UNL1        0.1450
     21 N         140.3492  143.8543  159.7484 N.3     1  UNL1       -0.2640
     22 C         141.7326  143.4315  160.1452 C.3     1  UNL1        0.0981
     23 C         142.5170  142.5077  159.2614 C.3     1  UNL1        0.0224
     24 C         143.9004  142.0850  159.6582 C.3     1  UNL1        0.0065
     25 C         144.4994  142.5860  160.9389 C.3     1  UNL1        0.0277
     26 C         143.7150  143.5098  161.8227 C.ar    1  UNL1       -0.0073
     27 C         144.3140  144.0109  163.1034 C.ar    1  UNL1       -0.0015
     28 C         143.5296  144.9347  163.9873 C.ar    1  UNL1        0.0203
     29 C         142.1461  145.3575  163.5905 C.ar    1  UNL1        0.0985
     30 N         141.5471  144.8564  162.3098 N.ar    1  UNL1       -0.2471
     31 C         142.3316  143.9326  161.4259 C.ar    1  UNL1        0.0695
     32 C         140.1479  145.1097  158.9524 C.3     1  UNL1        0.0728
     33 C         140.4675  145.1279  157.4869 C.3     1  UNL1        0.0188
     34 C         140.4037  146.4162  156.7213 C.3     1  UNL1        0.0183
     35 N         138.7822  148.4394  156.5577 N.3     1  UNL1       -0.3211
     36 C         139.0750  146.9871  156.3233 C.3     1  UNL1        0.0652
     37 H         137.8406  148.6538  156.2295 H       1  UNL1        0.1189
     38 H         139.4578  149.0090  156.0482 H       1  UNL1        0.1189
@<TRIPOS>BOND
     1    35    36    1
     2    36    34    1
     3    34    33    1
     4    33    32    1
     5    32    21    1
     6    21     1    1
     7     1     2    1
     8     2     3   ar
     9     3     4   ar
    10     4     5   ar
    11     5     6   ar
    12     6     7   ar
    13     7     8   ar
    14     8     9   ar
    15     9    10   ar
    16    10    11   ar
    17    11    12   ar
    18    12    13   ar
    19    13    15    1
    20    15    16    1
    21    16    17   am
    22    16    18    2
    23    13    14   ar
    24    22    21    1
    25    22    23    1
    26    23    24    1
    27    24    25    1
    28    25    26    1
    29    26    27   ar
    30    27    28   ar
    31    28    29   ar
    32    29    30   ar
    33    30    31   ar
    34    14     2   ar
    35    31    22    1
    36    14     6   ar
    37    31    26   ar
    38    12     7   ar
    39    35    37    1
    40    35    38    1
    41    17    19    1
    42    17    20    1
@<TRIPOS>MOLECULE
*****
 38 42 0 0 0
SMALL
GASTEIGER

@<TRIPOS>ATOM
      1 C         139.4055  139.4277  163.5254 C.3     1  UNL1        0.1204
      2 C         140.6975  139.7920  164.1947 C.ar    1  UNL1        0.0909
      3 N         141.9337  140.0062  163.3725 N.ar    1  UNL1       -0.2453
      4 C         143.2257  140.3706  164.0418 C.ar    1  UNL1        0.0986
      5 C         143.2815  140.5208  165.5332 C.ar    1  UNL1        0.0221
      6 C         142.0453  140.3067  166.3554 C.ar    1  UNL1        0.0200
      7 C         141.7965  140.3843  167.8326 C.ar    1  UNL1        0.0173
      8 C         142.6996  140.7022  168.9872 C.ar    1  UNL1        0.0015
      9 C         142.1569  140.7036  170.3856 C.ar    1  UNL1        0.0001
     10 C         140.7111  140.3871  170.6293 C.ar    1  UNL1        0.0015
     11 C         139.8079  140.0692  169.4746 C.ar    1  UNL1        0.0172
     12 C         140.3507  140.0678  168.0763 C.ar    1  UNL1        0.0603
     13 N         139.7060  139.7947  166.7497 N.ar    1  UNL1       -0.3179
     14 C         140.7533  139.9423  165.6861 C.ar    1  UNL1        0.0754
     15 C         138.2666  139.4367  166.5260 C.3     1  UNL1        0.1914
     16 C         137.8226  138.0085  166.6391 C.2     1  UNL1        0.2425
     17 N         136.8513  137.6074  167.7095 N.am    1  UNL1       -0.3272
     18 O         138.3498  136.9811  165.6817 O.2     1  UNL1       -0.2732
     19 H         136.5052  138.2817  168.3379 H       1  UNL1        0.1450
     20 H         136.5599  136.6700  167.7836 H       1  UNL1        0.1450
     21 N         138.6112  140.4773  162.8064 N.3     1  UNL1       -0.2640
     22 C         138.7073  141.9127  163.2312 C.3     1  UNL1        0.0981
     23 C         137.8526  142.4215  164.3539 C.3     1  UNL1        0.0224
     24 C         137.9487  143.8568  164.7786 C.3     1  UNL1        0.0065
     25 C         138.8996  144.7835  164.0807 C.3     1  UNL1        0.0277
     26 C         139.7543  144.2748  162.9580 C.ar    1  UNL1       -0.0073
     27 C         140.7052  145.2014  162.2601 C.ar    1  UNL1       -0.0015
     28 C         141.5600  144.6927  161.1373 C.ar    1  UNL1        0.0203
     29 C         141.4639  143.2573  160.7125 C.ar    1  UNL1        0.0985
     30 N         140.5130  142.3306  161.4104 N.ar    1  UNL1       -0.2471
     31 C         139.6582  142.8394  162.5332 C.ar    1  UNL1        0.0695
     32 C         137.7208  140.0917  161.6625 C.3     1  UNL1        0.0728
     33 C         138.3122  139.8132  160.3124 C.3     1  UNL1        0.0188
     34 C         139.2607  138.6654  160.1314 C.3     1  UNL1        0.0183
     35 N         141.6695  138.1018  160.9249 N.3     1  UNL1       -0.3211
     36 C         140.7387  138.9153  160.0755 C.3     1  UNL1        0.0652
     37 H         142.6301  138.4036  160.7616 H       1  UNL1        0.1189
     38 H         141.5770  137.1155  160.6820 H       1  UNL1        0.1189
@<TRIPOS>BOND
     1    35    36    1
     2    36    34    1
     3    34    33    1
     4    33    32    1
     5    32    21    1
     6    21     1    1
     7     1     2    1
     8     2     3   ar
     9     3     4   ar
    10     4     5   ar
    11     5     6   ar
    12     6     7   ar
    13     7     8   ar
    14     8     9   ar
    15     9    10   ar
    16    10    11   ar
    17    11    12   ar
    18    12    13   ar
    19    13    15    1
    20    15    16    1
    21    16    17   am
    22    16    18    2
    23    13    14   ar
    24    22    21    1
    25    22    23    1
    26    23    24    1
    27    24    25    1
    28    25    26    1
    29    26    27   ar
    30    27    28   ar
    31    28    29   ar
    32    29    30   ar
    33    30    31   ar
    34    14     2   ar
    35    31    22    1
    36    14     6   ar
    37    31    26   ar
    38    12     7   ar
    39    35    37    1
    40    35    38    1
    41    17    19    1
    42    17    20    1
@<TRIPOS>MOLECULE
*****
 38 42 0 0 0
SMALL
GASTEIGER

@<TRIPOS>ATOM
      1 C         142.4704  141.5121  161.3902 C.3     1  UNL1        0.1204
      2 C         142.9520  142.3834  162.5122 C.ar    1  UNL1        0.0909
      3 N         143.5236  143.7385  162.2172 N.ar    1  UNL1       -0.2453
      4 C         144.0051  144.6098  163.3392 C.ar    1  UNL1        0.0986
      5 C         143.9152  144.1260  164.7562 C.ar    1  UNL1        0.0221
      6 C         143.3436  142.7709  165.0512 C.ar    1  UNL1        0.0200
      7 C         143.1292  142.0305  166.3380 C.ar    1  UNL1        0.0173
      8 C         143.4138  142.3947  167.7650 C.ar    1  UNL1        0.0015
      9 C         143.0842  141.4300  168.8652 C.ar    1  UNL1        0.0001
     10 C         142.4701  140.1010  168.5385 C.ar    1  UNL1        0.0015
     11 C         142.1855  139.7368  167.1115 C.ar    1  UNL1        0.0172
     12 C         142.5150  140.7016  166.0113 C.ar    1  UNL1        0.0603
     13 N         142.3499  140.6207  164.5226 N.ar    1  UNL1       -0.3179
     14 C         142.8620  141.8996  163.9292 C.ar    1  UNL1        0.0754
     15 C         141.7739  139.4639  163.7610 C.3     1  UNL1        0.1914
     16 C         142.6822  138.5200  163.0303 C.2     1  UNL1        0.2425
     17 N         142.1056  137.3678  162.2623 N.am    1  UNL1       -0.3272
     18 O         144.1672  138.7284  163.0677 O.2     1  UNL1       -0.2732
     19 H         141.1310  137.2310  162.2378 H       1  UNL1        0.1450
     20 H         142.7018  136.7483  161.7828 H       1  UNL1        0.1450
     21 N         141.1080  141.7311  160.8022 N.3     1  UNL1       -0.2640
     22 C         139.8835  141.4559  161.6237 C.3     1  UNL1        0.0981
     23 C         139.1717  140.1422  161.4921 C.3     1  UNL1        0.0224
     24 C         137.9472  139.8670  162.3135 C.3     1  UNL1        0.0065
     25 C         137.4345  140.9056  163.2667 C.3     1  UNL1        0.0277
     26 C         138.1463  142.2193  163.3983 C.ar    1  UNL1       -0.0073
     27 C         137.6335  143.2579  164.3514 C.ar    1  UNL1       -0.0015
     28 C         138.3452  144.5717  164.4831 C.ar    1  UNL1        0.0203
     29 C         139.5698  144.8470  163.6616 C.ar    1  UNL1        0.0985
     30 N         140.0826  143.8084  162.7085 N.ar    1  UNL1       -0.2471
     31 C         139.3708  142.4945  162.5768 C.ar    1  UNL1        0.0695
     32 C         140.9701  142.2254  159.3927 C.3     1  UNL1        0.0728
     33 C         139.9510  143.2754  159.0624 C.3     1  UNL1        0.0188
     34 C         140.3630  144.5151  158.3254 C.3     1  UNL1        0.0183
     35 N         141.5568  145.3979  160.4573 N.3     1  UNL1       -0.3211
     36 C         141.2362  145.5324  158.9982 C.3     1  UNL1        0.0652
     37 H         142.1572  146.1702  160.7461 H       1  UNL1        0.1189
     38 H         142.0386  144.5136  160.6195 H       1  UNL1        0.1189
@<TRIPOS>BOND
     1    35    36    1
     2    36    34    1
     3    34    33    1
     4    33    32    1
     5    32    21    1
     6    21     1    1
     7     1     2    1
     8     2     3   ar
     9     3     4   ar
    10     4     5   ar
    11     5     6   ar
    12     6     7   ar
    13     7     8   ar
    14     8     9   ar
    15     9    10   ar
    16    10    11   ar
    17    11    12   ar
    18    12    13   ar
    19    13    15    1
    20    15    16    1
    21    16    17   am
    22    16    18    2
    23    13    14   ar
    24    22    21    1
    25    22    23    1
    26    23    24    1
    27    24    25    1
    28    25    26    1
    29    26    27   ar
    30    27    28   ar
    31    28    29   ar
    32    29    30   ar
    33    30    31   ar
    34    14     2   ar
    35    31    22    1
    36    14     6   ar
    37    31    26   ar
    38    12     7   ar
    39    35    37    1
    40    35    38    1
    41    17    19    1
    42    17    20    1
