@<TRIPOS>MOLECULE
*****
 34 36 0 0 0
SMALL
GASTEIGER

@<TRIPOS>ATOM
      1 C         140.9110  142.8376  164.0896 C.ar    1  UNL1        0.1143
      2 C         140.2682  144.1183  163.6462 C.ar    1  UNL1        0.0850
      3 CL        139.3918  145.0013  164.4843 Cl      1  UNL1       -0.0799
      4 C         140.6555  144.3610  162.2175 C.ar    1  UNL1        0.0574
      5 C         140.3188  145.4655  161.2601 C.ar    1  UNL1        0.0631
      6 CL        139.4366  146.5962  161.6996 Cl      1  UNL1       -0.0821
      7 C         140.8644  145.4393  159.8631 C.ar    1  UNL1        0.0353
      8 C         141.7467  144.3086  159.4236 C.ar    1  UNL1        0.1366
      9 N         142.0833  143.2041  160.3810 N.ar    1  UNL1       -0.2236
     10 C         141.5377  143.2303  161.7780 C.ar    1  UNL1        0.1460
     11 N         141.6956  142.2889  162.9350 N.ar    1  UNL1       -0.3061
     12 C         142.4974  141.0211  162.9370 C.3     1  UNL1        0.1031
     13 C         141.8026  139.6941  162.8604 C.3     1  UNL1        0.0255
     14 C         142.6044  138.4263  162.8624 C.3     1  UNL1        0.0191
     15 C         144.1011  138.4857  162.9410 C.3     1  UNL1        0.0687
     16 N         144.7961  139.8128  163.0176 N.3     1  UNL1       -0.2959
     17 C         143.9943  141.0805  163.0156 C.3     1  UNL1        0.0914
     18 H         145.4264  139.8618  162.2171 H       1  UNL1        0.1233
     19 C         142.2922  144.2825  158.0265 C.2     1  UNL1        0.2606
     20 N         143.6194  143.6399  157.7515 N.am    1  UNL1       -0.3241
     21 O         141.5106  144.8990  156.9044 O.2     1  UNL1       -0.2687
     22 H         144.1324  143.2352  158.4880 H       1  UNL1        0.1453
     23 H         143.9775  143.6227  156.8346 H       1  UNL1        0.1453
     24 C         140.6698  141.5925  166.8083 C.1     1  UNL1       -0.0845
     25 C         140.7904  142.2151  165.4490 C.1     1  UNL1       -0.0460
     26 C         140.5491  140.9699  168.1677 C.3     1  UNL1        0.0850
     27 C         139.2560  140.9924  169.8491 C.3     1  UNL1        0.0101
     28 C         140.4015  141.8399  169.3806 C.3     1  UNL1        0.0806
     29 C         141.5469  142.6875  168.9122 C.3     1  UNL1        0.0101
     30 C         140.2537  142.7099  170.5936 C.2     1  UNL1        0.2194
     31 N         139.8835  144.1553  170.4394 N.am    1  UNL1       -0.3288
     32 O         140.4763  142.1345  171.9609 O.2     1  UNL1       -0.2753
     33 H         139.7374  144.5329  169.5420 H       1  UNL1        0.1449
     34 H         139.7865  144.7263  171.2355 H       1  UNL1        0.1449
@<TRIPOS>BOND
     1    27    28    1
     2    28    29    1
     3    28    26    1
     4    26    24    1
     5    24    25    3
     6    25     1    1
     7     1     2   ar
     8     2     3    1
     9     2     4   ar
    10     4     5   ar
    11     5     6    1
    12     5     7   ar
    13     7     8   ar
    14     8    19    1
    15    19    20   am
    16    19    21    2
    17     8     9   ar
    18     9    10   ar
    19    10    11   ar
    20    12    11    1
    21    12    13    1
    22    13    14    1
    23    14    15    1
    24    15    16    1
    25    16    17    1
    26    28    30    1
    27    30    31   am
    28    30    32    2
    29    11     1   ar
    30    17    12    1
    31    10     4   ar
    32    20    22    1
    33    20    23    1
    34    16    18    1
    35    31    33    1
    36    31    34    1
@<TRIPOS>MOLECULE
*****
 34 36 0 0 0
SMALL
GASTEIGER

@<TRIPOS>ATOM
      1 C         143.0124  140.3314  165.4539 C.ar    1  UNL1        0.1143
      2 C         143.1322  139.4029  166.6258 C.ar    1  UNL1        0.0850
      3 CL        143.7600  138.0407  166.6108 Cl      1  UNL1       -0.0799
      4 C         142.5140  140.0757  167.8154 C.ar    1  UNL1        0.0574
      5 C         142.3432  139.6378  169.2399 C.ar    1  UNL1        0.0631
      6 CL        142.8451  138.2934  169.6766 Cl      1  UNL1       -0.0821
      7 C         141.6706  140.5444  170.2276 C.ar    1  UNL1        0.0353
      8 C         141.1687  141.8888  169.7909 C.ar    1  UNL1        0.1366
      9 N         141.3394  142.3266  168.3664 N.ar    1  UNL1       -0.2236
     10 C         142.0121  141.4201  167.3787 C.ar    1  UNL1        0.1460
     11 N         142.3202  141.5781  165.9192 N.ar    1  UNL1       -0.3061
     12 C         141.9933  142.7731  165.0735 C.3     1  UNL1        0.1031
     13 C         143.0933  143.6623  164.5744 C.3     1  UNL1        0.0255
     14 C         142.7665  144.8573  163.7288 C.3     1  UNL1        0.0191
     15 C         141.3395  145.1631  163.3821 C.3     1  UNL1        0.0687
     16 N         140.2393  144.2739  163.8812 N.3     1  UNL1       -0.2959
     17 C         140.5662  143.0789  164.7269 C.3     1  UNL1        0.0914
     18 H         139.7456  143.9266  163.0590 H       1  UNL1        0.1233
     19 C         140.4960  142.7953  170.7787 C.2     1  UNL1        0.2606
     20 N         140.0093  144.1466  170.3461 N.am    1  UNL1       -0.3241
     21 O         140.3100  142.3505  172.1991 O.2     1  UNL1       -0.2687
     22 H         140.1314  144.4385  169.4138 H       1  UNL1        0.1453
     23 H         139.5678  144.7416  170.9944 H       1  UNL1        0.1453
     24 C         143.9864  139.7902  162.6685 C.1     1  UNL1       -0.0845
     25 C         143.4994  140.0608  164.0612 C.1     1  UNL1       -0.0460
     26 C         144.4734  139.5196  161.2758 C.3     1  UNL1        0.0850
     27 C         143.4080  137.7045  161.0109 C.3     1  UNL1        0.0101
     28 C         143.5276  138.9862  160.2409 C.3     1  UNL1        0.0806
     29 C         143.6472  140.2679  159.4710 C.3     1  UNL1        0.0101
     30 C         142.5817  138.4527  159.2061 C.2     1  UNL1        0.2194
     31 N         141.1010  138.5302  159.4324 N.am    1  UNL1       -0.3288
     32 O         143.1168  137.8417  157.9449 O.2     1  UNL1       -0.2753
     33 H         140.7498  138.9312  160.2601 H       1  UNL1        0.1449
     34 H         140.4802  138.1801  158.7532 H       1  UNL1        0.1449
@<TRIPOS>BOND
     1    27    28    1
     2    28    29    1
     3    28    26    1
     4    26    24    1
     5    24    25    3
     6    25     1    1
     7     1     2   ar
     8     2     3    1
     9     2     4   ar
    10     4     5   ar
    11     5     6    1
    12     5     7   ar
    13     7     8   ar
    14     8    19    1
    15    19    20   am
    16    19    21    2
    17     8     9   ar
    18     9    10   ar
    19    10    11   ar
    20    12    11    1
    21    12    13    1
    22    13    14    1
    23    14    15    1
    24    15    16    1
    25    16    17    1
    26    28    30    1
    27    30    31   am
    28    30    32    2
    29    11     1   ar
    30    17    12    1
    31    10     4   ar
    32    20    22    1
    33    20    23    1
    34    16    18    1
    35    31    33    1
    36    31    34    1
@<TRIPOS>MOLECULE
*****
 34 36 0 0 0
SMALL
GASTEIGER

@<TRIPOS>ATOM
      1 C         141.1590  143.2674  164.6921 C.ar    1  UNL1        0.1143
      2 C         140.3442  144.3379  164.0288 C.ar    1  UNL1        0.0850
      3 CL        139.2873  145.1757  164.6854 Cl      1  UNL1       -0.0799
      4 C         140.7717  144.4236  162.5936 C.ar    1  UNL1        0.0574
      5 C         140.3179  145.2968  161.4615 C.ar    1  UNL1        0.0631
      6 CL        139.2388  146.3144  161.6853 Cl      1  UNL1       -0.0821
      7 C         140.9431  145.1524  160.1058 C.ar    1  UNL1        0.0353
      8 C         142.0222  144.1348  159.8820 C.ar    1  UNL1        0.1366
      9 N         142.4761  143.2616  161.0141 N.ar    1  UNL1       -0.2236
     10 C         141.8508  143.4060  162.3698 C.ar    1  UNL1        0.1460
     11 N         142.0902  142.6914  163.6668 N.ar    1  UNL1       -0.3061
     12 C         143.0859  141.5936  163.8979 C.3     1  UNL1        0.1031
     13 C         142.6137  140.2165  164.2587 C.3     1  UNL1        0.0255
     14 C         143.6094  139.1187  164.4898 C.3     1  UNL1        0.0191
     15 C         145.0774  139.3981  164.3600 C.3     1  UNL1        0.0687
     16 N         145.5497  140.7753  163.9991 N.3     1  UNL1       -0.2959
     17 C         144.5540  141.8731  163.7680 C.3     1  UNL1        0.0914
     18 H         146.0927  140.6847  163.1404 H       1  UNL1        0.1233
     19 C         142.6475  143.9904  158.5262 C.2     1  UNL1        0.2606
     20 N         142.7362  145.1756  157.6111 N.am    1  UNL1       -0.3241
     21 O         143.1840  142.6607  158.0855 O.2     1  UNL1       -0.2687
     22 H         142.3841  146.0483  157.9004 H       1  UNL1        0.1453
     23 H         143.1466  145.0808  156.7213 H       1  UNL1        0.1453
     24 C         140.9611  142.4259  167.5649 C.1     1  UNL1       -0.0845
     25 C         141.0600  142.8466  166.1285 C.1     1  UNL1       -0.0460
     26 C         140.8621  142.0051  169.0012 C.3     1  UNL1        0.0850
     27 C         140.6608  139.9209  169.3409 C.3     1  UNL1        0.0101
     28 C         141.7588  140.9251  169.5299 C.3     1  UNL1        0.0806
     29 C         142.8569  141.9293  169.7189 C.3     1  UNL1        0.0101
     30 C         142.6556  139.8450  170.0586 C.2     1  UNL1        0.2194
     31 N         143.2426  139.9639  171.4338 N.am    1  UNL1       -0.3288
     32 O         142.9652  138.6462  169.2119 O.2     1  UNL1       -0.2753
     33 H         143.0393  140.7508  171.9894 H       1  UNL1        0.1449
     34 H         143.8311  139.2550  171.7807 H       1  UNL1        0.1449
@<TRIPOS>BOND
     1    27    28    1
     2    28    29    1
     3    28    26    1
     4    26    24    1
     5    24    25    3
     6    25     1    1
     7     1     2   ar
     8     2     3    1
     9     2     4   ar
    10     4     5   ar
    11     5     6    1
    12     5     7   ar
    13     7     8   ar
    14     8    19    1
    15    19    20   am
    16    19    21    2
    17     8     9   ar
    18     9    10   ar
    19    10    11   ar
    20    12    11    1
    21    12    13    1
    22    13    14    1
    23    14    15    1
    24    15    16    1
    25    16    17    1
    26    28    30    1
    27    30    31   am
    28    30    32    2
    29    11     1   ar
    30    17    12    1
    31    10     4   ar
    32    20    22    1
    33    20    23    1
    34    16    18    1
    35    31    33    1
    36    31    34    1
@<TRIPOS>MOLECULE
*****
 34 36 0 0 0
SMALL
GASTEIGER

@<TRIPOS>ATOM
      1 C         141.0144  142.4011  164.5945 C.ar    1  UNL1        0.1143
      2 C         141.2914  143.5102  163.6233 C.ar    1  UNL1        0.0850
      3 CL        142.1349  144.7224  163.8864 Cl      1  UNL1       -0.0799
      4 C         140.5769  143.1943  162.3428 C.ar    1  UNL1        0.0574
      5 C         140.4878  143.9258  161.0363 C.ar    1  UNL1        0.0631
      6 CL        141.2064  145.2301  160.8565 Cl      1  UNL1       -0.0821
      7 C         139.6801  143.3530  159.9097 C.ar    1  UNL1        0.0353
      8 C         138.9615  142.0487  160.0895 C.ar    1  UNL1        0.1366
      9 N         139.0506  141.3171  161.3959 N.ar    1  UNL1       -0.2236
     10 C         139.8583  141.8900  162.5226 C.ar    1  UNL1        0.1460
     11 N         140.1287  141.3998  163.9142 N.ar    1  UNL1       -0.3061
     12 C         139.6052  140.1310  164.5193 C.3     1  UNL1        0.1031
     13 C         138.6043  140.1892  165.6348 C.3     1  UNL1        0.0255
     14 C         138.0808  138.9204  166.2399 C.3     1  UNL1        0.0191
     15 C         138.5584  137.5933  165.7294 C.3     1  UNL1        0.0687
     16 N         139.5594  137.5349  164.6139 N.3     1  UNL1       -0.2959
     17 C         140.0828  138.8038  164.0088 C.3     1  UNL1        0.0914
     18 H         139.1268  137.0046  163.8575 H       1  UNL1        0.1233
     19 C         138.1537  141.4759  158.9627 C.2     1  UNL1        0.2606
     20 N         137.8180  142.3254  157.7730 N.am    1  UNL1       -0.3241
     21 O         137.6817  140.0534  159.0257 O.2     1  UNL1       -0.2687
     22 H         138.1278  143.2590  157.7316 H       1  UNL1        0.1453
     23 H         137.2879  141.9495  157.0335 H       1  UNL1        0.1453
     24 C         142.0500  142.2179  167.4041 C.1     1  UNL1       -0.0845
     25 C         141.5322  142.3095  165.9993 C.1     1  UNL1       -0.0460
     26 C         142.5678  142.1262  168.8089 C.3     1  UNL1        0.0850
     27 C         140.7442  142.8336  169.6298 C.3     1  UNL1        0.0101
     28 C         141.6590  141.6798  169.9156 C.3     1  UNL1        0.0806
     29 C         142.5739  140.5260  170.2014 C.3     1  UNL1        0.0101
     30 C         140.7502  141.2334  171.0223 C.2     1  UNL1        0.2194
     31 N         140.1505  139.8588  170.9919 N.am    1  UNL1       -0.3288
     32 O         140.4411  142.1615  172.1594 O.2     1  UNL1       -0.2753
     33 H         140.3533  139.2496  170.2456 H       1  UNL1        0.1449
     34 H         139.5540  139.5658  171.7183 H       1  UNL1        0.1449
@<TRIPOS>BOND
     1    27    28    1
     2    28    29    1
     3    28    26    1
     4    26    24    1
     5    24    25    3
     6    25     1    1
     7     1     2   ar
     8     2     3    1
     9     2     4   ar
    10     4     5   ar
    11     5     6    1
    12     5     7   ar
    13     7     8   ar
    14     8    19    1
    15    19    20   am
    16    19    21    2
    17     8     9   ar
    18     9    10   ar
    19    10    11   ar
    20    12    11    1
    21    12    13    1
    22    13    14    1
    23    14    15    1
    24    15    16    1
    25    16    17    1
    26    28    30    1
    27    30    31   am
    28    30    32    2
    29    11     1   ar
    30    17    12    1
    31    10     4   ar
    32    20    22    1
    33    20    23    1
    34    16    18    1
    35    31    33    1
    36    31    34    1
@<TRIPOS>MOLECULE
*****
 34 36 0 0 0
SMALL
GASTEIGER

@<TRIPOS>ATOM
      1 C         142.3474  140.9328  164.6294 C.ar    1  UNL1        0.1143
      2 C         143.1360  139.8887  163.8960 C.ar    1  UNL1        0.0850
      3 CL        144.2885  139.1040  164.4490 Cl      1  UNL1       -0.0799
      4 C         142.5696  139.7670  162.5123 C.ar    1  UNL1        0.0574
      5 C         142.9436  138.8991  161.3475 C.ar    1  UNL1        0.0631
      6 CL        144.0822  137.9302  161.4691 Cl      1  UNL1       -0.0821
      7 C         142.1790  139.0002  160.0610 C.ar    1  UNL1        0.0353
      8 C         141.0404  139.9691  159.9393 C.ar    1  UNL1        0.1366
      9 N         140.6664  140.8369  161.1041 N.ar    1  UNL1       -0.2236
     10 C         141.4310  140.7359  162.3906 C.ar    1  UNL1        0.1460
     11 N         141.2937  141.4564  163.6991 N.ar    1  UNL1       -0.3061
     12 C         140.2805  142.5147  164.0207 C.3     1  UNL1        0.1031
     13 C         138.8586  142.1304  164.3041 C.3     1  UNL1        0.0255
     14 C         137.8454  143.1887  164.6257 C.3     1  UNL1        0.0191
     15 C         138.2542  144.6314  164.6640 C.3     1  UNL1        0.0687
     16 N         139.6761  145.0158  164.3806 N.3     1  UNL1       -0.2959
     17 C         140.6893  143.9575  164.0589 C.3     1  UNL1        0.0914
     18 H         140.0176  145.5095  165.2052 H       1  UNL1        0.1233
     19 C         140.2758  140.0701  158.6527 C.2     1  UNL1        0.2606
     20 N         139.0004  139.3007  158.4758 N.am    1  UNL1       -0.3241
     21 O         140.7867  140.9405  157.5431 O.2     1  UNL1       -0.2687
     22 H         138.6652  138.7294  159.2042 H       1  UNL1        0.1453
     23 H         138.4986  139.3670  157.6314 H       1  UNL1        0.1453
     24 C         142.7985  141.8183  167.4601 C.1     1  UNL1       -0.0845
     25 C         142.5729  141.3755  166.0448 C.1     1  UNL1       -0.0460
     26 C         143.0240  142.2610  168.8754 C.3     1  UNL1        0.0850
     27 C         142.9228  140.5194  170.0822 C.3     1  UNL1        0.0101
     28 C         142.1149  141.7779  169.9663 C.3     1  UNL1        0.0806
     29 C         141.3070  143.0363  169.8503 C.3     1  UNL1        0.0101
     30 C         141.2058  141.2946  171.0572 C.2     1  UNL1        0.2194
     31 N         140.8158  139.8477  171.1226 N.am    1  UNL1       -0.3288
     32 O         140.6866  142.2584  172.0827 O.2     1  UNL1       -0.2753
     33 H         141.1566  139.2152  170.4495 H       1  UNL1        0.1449
     34 H         140.2192  139.5306  171.8386 H       1  UNL1        0.1449
@<TRIPOS>BOND
     1    27    28    1
     2    28    29    1
     3    28    26    1
     4    26    24    1
     5    24    25    3
     6    25     1    1
     7     1     2   ar
     8     2     3    1
     9     2     4   ar
    10     4     5   ar
    11     5     6    1
    12     5     7   ar
    13     7     8   ar
    14     8    19    1
    15    19    20   am
    16    19    21    2
    17     8     9   ar
    18     9    10   ar
    19    10    11   ar
    20    12    11    1
    21    12    13    1
    22    13    14    1
    23    14    15    1
    24    15    16    1
    25    16    17    1
    26    28    30    1
    27    30    31   am
    28    30    32    2
    29    11     1   ar
    30    17    12    1
    31    10     4   ar
    32    20    22    1
    33    20    23    1
    34    16    18    1
    35    31    33    1
    36    31    34    1
@<TRIPOS>MOLECULE
*****
 34 36 0 0 0
SMALL
GASTEIGER

@<TRIPOS>ATOM
      1 C         139.9691  139.5936  165.5446 C.ar    1  UNL1        0.1143
      2 C         139.0680  139.4697  166.7374 C.ar    1  UNL1        0.0850
      3 CL        137.7245  138.8030  166.7620 Cl      1  UNL1       -0.0799
      4 C         139.7464  140.1294  167.9013 C.ar    1  UNL1        0.0574
      5 C         139.3324  140.3146  169.3310 C.ar    1  UNL1        0.0631
      6 CL        138.0121  139.7829  169.8045 Cl      1  UNL1       -0.0821
      7 C         140.2387  141.0316  170.2873 C.ar    1  UNL1        0.0353
      8 C         141.5589  141.5633  169.8139 C.ar    1  UNL1        0.1366
      9 N         141.9729  141.3781  168.3841 N.ar    1  UNL1       -0.2236
     10 C         141.0666  140.6611  167.4278 C.ar    1  UNL1        0.1460
     11 N         141.2042  140.3300  165.9713 N.ar    1  UNL1       -0.3061
     12 C         142.3721  140.6747  165.0953 C.3     1  UNL1        0.1031
     13 C         143.4839  139.6862  164.9042 C.3     1  UNL1        0.0255
     14 C         144.6517  140.0310  164.0282 C.3     1  UNL1        0.0191
     15 C         144.7077  141.3643  163.3433 C.3     1  UNL1        0.0687
     16 N         143.5959  142.3528  163.5344 N.3     1  UNL1       -0.2959
     17 C         142.4281  142.0081  164.4104 C.3     1  UNL1        0.0914
     18 H         143.2196  142.5554  162.6082 H       1  UNL1        0.1233
     19 C         142.4653  142.2803  170.7703 C.2     1  UNL1        0.2606
     20 N         143.7443  142.8896  170.2777 N.am    1  UNL1       -0.3241
     21 O         142.0924  142.3879  172.2192 O.2     1  UNL1       -0.2687
     22 H         143.9890  142.8189  169.3267 H       1  UNL1        0.1453
     23 H         144.3392  143.3602  170.9054 H       1  UNL1        0.1453
     24 C         139.4006  138.5518  162.7893 C.1     1  UNL1       -0.0845
     25 C         139.6848  139.0727  164.1669 C.1     1  UNL1       -0.0460
     26 C         139.1163  138.0309  161.4117 C.3     1  UNL1        0.0850
     27 C         137.6317  139.4925  161.0123 C.3     1  UNL1        0.0101
     28 C         138.8451  138.9881  160.2891 C.3     1  UNL1        0.0806
     29 C         140.0586  138.4837  159.5659 C.3     1  UNL1        0.0101
     30 C         138.5739  139.9453  159.1665 C.2     1  UNL1        0.2194
     31 N         138.3054  141.3912  159.4620 N.am    1  UNL1       -0.3288
     32 O         138.5711  139.4566  157.7483 O.2     1  UNL1       -0.2753
     33 H         138.3072  141.7119  160.3928 H       1  UNL1        0.1449
     34 H         138.1274  142.0194  158.7252 H       1  UNL1        0.1449
@<TRIPOS>BOND
     1    27    28    1
     2    28    29    1
     3    28    26    1
     4    26    24    1
     5    24    25    3
     6    25     1    1
     7     1     2   ar
     8     2     3    1
     9     2     4   ar
    10     4     5   ar
    11     5     6    1
    12     5     7   ar
    13     7     8   ar
    14     8    19    1
    15    19    20   am
    16    19    21    2
    17     8     9   ar
    18     9    10   ar
    19    10    11   ar
    20    12    11    1
    21    12    13    1
    22    13    14    1
    23    14    15    1
    24    15    16    1
    25    16    17    1
    26    28    30    1
    27    30    31   am
    28    30    32    2
    29    11     1   ar
    30    17    12    1
    31    10     4   ar
    32    20    22    1
    33    20    23    1
    34    16    18    1
    35    31    33    1
    36    31    34    1
@<TRIPOS>MOLECULE
*****
 34 36 0 0 0
SMALL
GASTEIGER

@<TRIPOS>ATOM
      1 C         140.5749  140.5088  164.4615 C.ar    1  UNL1        0.1143
      2 C         139.6088  139.5241  163.8724 C.ar    1  UNL1        0.0850
      3 CL        139.1561  138.2439  164.5096 Cl      1  UNL1       -0.0799
      4 C         139.1748  140.0444  162.5341 C.ar    1  UNL1        0.0574
      5 C         138.2343  139.4976  161.5015 C.ar    1  UNL1        0.0631
      6 CL        137.5364  138.1913  161.7395 Cl      1  UNL1       -0.0821
      7 C         137.9917  140.2569  160.2309 C.ar    1  UNL1        0.0353
      8 C         138.6896  141.5632  159.9929 C.ar    1  UNL1        0.1366
      9 N         139.6301  142.1101  161.0255 N.ar    1  UNL1       -0.2236
     10 C         139.8727  141.3507  162.2961 C.ar    1  UNL1        0.1460
     11 N         140.7380  141.6377  163.4873 N.ar    1  UNL1       -0.3061
     12 C         141.6128  142.8421  163.6719 C.3     1  UNL1        0.1031
     13 C         143.0973  142.6769  163.8091 C.3     1  UNL1        0.0255
     14 C         143.9721  143.8814  163.9937 C.3     1  UNL1        0.0191
     15 C         143.3624  145.2510  164.0411 C.3     1  UNL1        0.0687
     16 N         141.8778  145.4162  163.9039 N.3     1  UNL1       -0.2959
     17 C         141.0030  144.2118  163.7193 C.3     1  UNL1        0.0914
     18 H         141.7221  146.0198  163.0965 H       1  UNL1        0.1233
     19 C         138.4470  142.3225  158.7222 C.2     1  UNL1        0.2606
     20 N         139.0787  143.6679  158.5203 N.am    1  UNL1       -0.3241
     21 O         137.5727  141.7365  157.6536 O.2     1  UNL1       -0.2687
     22 H         139.6526  144.0526  159.2217 H       1  UNL1        0.1453
     23 H         138.9195  144.1663  157.6863 H       1  UNL1        0.1453
     24 C         141.9410  140.2634  167.1211 C.1     1  UNL1       -0.0845
     25 C         141.2579  140.3861  165.7913 C.1     1  UNL1       -0.0460
     26 C         142.6241  140.1408  168.4509 C.3     1  UNL1        0.0850
     27 C         142.7567  140.6166  170.5139 C.3     1  UNL1        0.0101
     28 C         142.9651  141.3729  169.2354 C.3     1  UNL1        0.0806
     29 C         143.1734  142.1292  167.9570 C.3     1  UNL1        0.0101
     30 C         143.3061  142.6051  170.0200 C.2     1  UNL1        0.2194
     31 N         144.7416  142.9774  170.2453 N.am    1  UNL1       -0.3288
     32 O         142.2116  143.4649  170.5792 O.2     1  UNL1       -0.2753
     33 H         145.4599  142.4130  169.8783 H       1  UNL1        0.1449
     34 H         144.9654  143.7861  170.7602 H       1  UNL1        0.1449
@<TRIPOS>BOND
     1    27    28    1
     2    28    29    1
     3    28    26    1
     4    26    24    1
     5    24    25    3
     6    25     1    1
     7     1     2   ar
     8     2     3    1
     9     2     4   ar
    10     4     5   ar
    11     5     6    1
    12     5     7   ar
    13     7     8   ar
    14     8    19    1
    15    19    20   am
    16    19    21    2
    17     8     9   ar
    18     9    10   ar
    19    10    11   ar
    20    12    11    1
    21    12    13    1
    22    13    14    1
    23    14    15    1
    24    15    16    1
    25    16    17    1
    26    28    30    1
    27    30    31   am
    28    30    32    2
    29    11     1   ar
    30    17    12    1
    31    10     4   ar
    32    20    22    1
    33    20    23    1
    34    16    18    1
    35    31    33    1
    36    31    34    1
@<TRIPOS>MOLECULE
*****
 34 36 0 0 0
SMALL
GASTEIGER

@<TRIPOS>ATOM
      1 C         141.6026  140.5978  164.6506 C.ar    1  UNL1        0.1143
      2 C         142.1744  139.7374  165.7382 C.ar    1  UNL1        0.0850
      3 CL        142.9479  138.4671  165.5426 Cl      1  UNL1       -0.0799
      4 C         141.8368  140.3701  167.0556 C.ar    1  UNL1        0.0574
      5 C         142.1393  139.9684  168.4688 C.ar    1  UNL1        0.0631
      6 CL        142.9196  138.7169  168.7421 Cl      1  UNL1       -0.0821
      7 C         141.6613  140.8182  169.6087 C.ar    1  UNL1        0.0353
      8 C         140.8809  142.0697  169.3354 C.ar    1  UNL1        0.1366
      9 N         140.5785  142.4715  167.9222 N.ar    1  UNL1       -0.2236
     10 C         141.0565  141.6217  166.7823 C.ar    1  UNL1        0.1460
     11 N         140.9117  141.7623  165.2960 N.ar    1  UNL1       -0.3061
     12 C         140.2008  142.8727  164.5806 C.3     1  UNL1        0.1031
     13 C         138.7921  142.6770  164.1041 C.3     1  UNL1        0.0255
     14 C         138.0812  143.7874  163.3887 C.3     1  UNL1        0.0191
     15 C         138.7791  145.0934  163.1497 C.3     1  UNL1        0.0687
     16 N         140.1879  145.2892  163.6262 N.3     1  UNL1       -0.2959
     17 C         140.8988  144.1788  164.3416 C.3     1  UNL1        0.0914
     18 H         140.1759  146.0879  164.2605 H       1  UNL1        0.1233
     19 C         140.4030  142.9196  170.4754 C.2     1  UNL1        0.2606
     20 N         140.0195  144.3497  170.2354 N.am    1  UNL1       -0.3241
     21 O         140.3085  142.3392  171.8553 O.2     1  UNL1       -0.2687
     22 H         140.0815  144.7306  169.3297 H       1  UNL1        0.1453
     23 H         139.7058  144.9074  170.9835 H       1  UNL1        0.1453
     24 C         141.8053  140.0804  161.7026 C.1     1  UNL1       -0.0845
     25 C         141.7039  140.3391  163.1766 C.1     1  UNL1       -0.0460
     26 C         141.9066  139.8217  160.2285 C.3     1  UNL1        0.0850
     27 C         141.4641  138.3656  158.7507 C.3     1  UNL1        0.0101
     28 C         140.6838  139.4401  159.4482 C.3     1  UNL1        0.0806
     29 C         139.9034  140.5145  160.1457 C.3     1  UNL1        0.0101
     30 C         139.4608  139.0585  158.6678 C.2     1  UNL1        0.2194
     31 N         138.2123  139.8821  158.7800 N.am    1  UNL1       -0.3288
     32 O         139.4866  137.8532  157.7753 O.2     1  UNL1       -0.2753
     33 H         138.1954  140.6732  159.3658 H       1  UNL1        0.1449
     34 H         137.4097  139.6316  158.2678 H       1  UNL1        0.1449
@<TRIPOS>BOND
     1    27    28    1
     2    28    29    1
     3    28    26    1
     4    26    24    1
     5    24    25    3
     6    25     1    1
     7     1     2   ar
     8     2     3    1
     9     2     4   ar
    10     4     5   ar
    11     5     6    1
    12     5     7   ar
    13     7     8   ar
    14     8    19    1
    15    19    20   am
    16    19    21    2
    17     8     9   ar
    18     9    10   ar
    19    10    11   ar
    20    12    11    1
    21    12    13    1
    22    13    14    1
    23    14    15    1
    24    15    16    1
    25    16    17    1
    26    28    30    1
    27    30    31   am
    28    30    32    2
    29    11     1   ar
    30    17    12    1
    31    10     4   ar
    32    20    22    1
    33    20    23    1
    34    16    18    1
    35    31    33    1
    36    31    34    1
@<TRIPOS>MOLECULE
*****
 34 36 0 0 0
SMALL
GASTEIGER

@<TRIPOS>ATOM
      1 C         141.5678  140.6162  164.2224 C.ar    1  UNL1        0.1143
      2 C         142.5210  139.6338  164.8359 C.ar    1  UNL1        0.0850
      3 CL        143.5211  138.7959  164.0960 Cl      1  UNL1       -0.0799
      4 C         142.2983  139.6364  166.3193 C.ar    1  UNL1        0.0574
      5 C         142.9479  138.8698  167.4330 C.ar    1  UNL1        0.0631
      6 CL        144.0387  137.8858  167.1297 Cl      1  UNL1       -0.0821
      7 C         142.5068  139.0873  168.8501 C.ar    1  UNL1        0.0353
      8 C         141.4160  140.0713  169.1534 C.ar    1  UNL1        0.1366
      9 N         140.7664  140.8378  168.0397 N.ar    1  UNL1       -0.2236
     10 C         141.2076  140.6204  166.6226 C.ar    1  UNL1        0.1460
     11 N         140.7561  141.2260  165.3267 N.ar    1  UNL1       -0.3061
     12 C         139.6816  142.2598  165.1637 C.3     1  UNL1        0.1031
     13 C         139.9634  143.6940  165.5001 C.3     1  UNL1        0.0255
     14 C         138.8889  144.7279  165.3371 C.3     1  UNL1        0.0191
     15 C         137.5324  144.3274  164.8376 C.3     1  UNL1        0.0687
     16 N         137.2505  142.8931  164.5011 N.3     1  UNL1       -0.2959
     17 C         138.3250  141.8592  164.6641 C.3     1  UNL1        0.0914
     18 H         136.9665  142.8707  163.5217 H       1  UNL1        0.1233
     19 C         140.9748  140.2887  170.5705 C.2     1  UNL1        0.2606
     20 N         139.8189  139.5094  171.1241 N.am    1  UNL1       -0.3241
     21 O         141.6897  141.2855  171.4340 O.2     1  UNL1       -0.2687
     22 H         139.3498  138.8552  170.5574 H       1  UNL1        0.1453
     23 H         139.5294  139.6521  172.0542 H       1  UNL1        0.1453
     24 C         141.3272  141.2503  161.3001 C.1     1  UNL1       -0.0845
     25 C         141.4475  140.9333  162.7613 C.1     1  UNL1       -0.0460
     26 C         141.2068  141.5673  159.8389 C.3     1  UNL1        0.0850
     27 C         139.9772  143.1793  159.2149 C.3     1  UNL1        0.0101
     28 C         141.4554  142.9640  159.3516 C.3     1  UNL1        0.0806
     29 C         142.9335  142.7487  159.4882 C.3     1  UNL1        0.0101
     30 C         141.7038  144.3607  158.8642 C.2     1  UNL1        0.2194
     31 N         141.7197  145.5027  159.8366 N.am    1  UNL1       -0.3288
     32 O         141.9364  144.6154  157.4044 O.2     1  UNL1       -0.2753
     33 H         141.5671  145.3355  160.7947 H       1  UNL1        0.1449
     34 H         141.8828  146.4194  159.5167 H       1  UNL1        0.1449
@<TRIPOS>BOND
     1    27    28    1
     2    28    29    1
     3    28    26    1
     4    26    24    1
     5    24    25    3
     6    25     1    1
     7     1     2   ar
     8     2     3    1
     9     2     4   ar
    10     4     5   ar
    11     5     6    1
    12     5     7   ar
    13     7     8   ar
    14     8    19    1
    15    19    20   am
    16    19    21    2
    17     8     9   ar
    18     9    10   ar
    19    10    11   ar
    20    12    11    1
    21    12    13    1
    22    13    14    1
    23    14    15    1
    24    15    16    1
    25    16    17    1
    26    28    30    1
    27    30    31   am
    28    30    32    2
    29    11     1   ar
    30    17    12    1
    31    10     4   ar
    32    20    22    1
    33    20    23    1
    34    16    18    1
    35    31    33    1
    36    31    34    1
