@<TRIPOS>MOLECULE
*****
 26 29 0 0 0
SMALL
GASTEIGER

@<TRIPOS>ATOM
      1 C         142.0063  141.9765  169.3269 C.ar    1  UNL1        0.1366
      2 C         140.7172  141.5724  169.9788 C.ar    1  UNL1        0.0353
      3 C         139.7502  140.6907  169.2457 C.ar    1  UNL1        0.0630
      4 CL        138.4611  140.2866  169.8977 Cl      1  UNL1       -0.0821
      5 C         140.0722  140.2130  167.8608 C.ar    1  UNL1        0.0564
      6 C         139.3197  139.3418  166.8992 C.ar    1  UNL1        0.0730
      7 CL        137.9787  138.7150  167.1413 Cl      1  UNL1       -0.0810
      8 C         140.1437  139.2074  165.6530 C.ar    1  UNL1        0.0486
      9 N         141.4055  139.9956  165.8444 N.ar    1  UNL1       -0.3160
     10 C         141.3613  140.6171  167.2089 C.ar    1  UNL1        0.1453
     11 N         142.3283  141.4988  167.9420 N.ar    1  UNL1       -0.2236
     12 C         142.5164  140.1374  164.8465 C.3     1  UNL1        0.1023
     13 C         143.8026  139.3916  165.0451 C.3     1  UNL1        0.0254
     14 C         144.9135  139.5335  164.0472 C.3     1  UNL1        0.0191
     15 C         144.7382  140.4211  162.8508 C.3     1  UNL1        0.0687
     16 N         143.4520  141.1669  162.6522 N.3     1  UNL1       -0.2959
     17 C         142.3411  141.0250  163.6501 C.3     1  UNL1        0.0914
     18 H         143.0771  140.8726  161.7504 H       1  UNL1        0.1233
     19 N         144.4337  142.5163  170.0794 N.am    1  UNL1       -0.3241
     20 C         142.9733  142.8582  170.0600 C.2     1  UNL1        0.2606
     21 O         142.4800  144.0818  170.7737 O.2     1  UNL1       -0.2687
     22 H         145.0684  143.0950  170.5605 H       1  UNL1        0.1453
     23 H         144.7575  141.7132  169.6110 H       1  UNL1        0.1453
     24 C         139.7713  138.4226  164.4301 C.3     1  UNL1        0.0392
     25 C         140.1650  137.5379  163.2845 C.3     1  UNL1        0.0063
     26 C         138.7326  137.9479  163.4576 C.3     1  UNL1        0.0063
@<TRIPOS>BOND
     1    19    20   am
     2    20    21    2
     3    20     1    1
     4     1     2   ar
     5     2     3   ar
     6     3     4    1
     7     3     5   ar
     8     5     6   ar
     9     6     7    1
    10     6     8   ar
    11     8    24    1
    12    24    25    1
    13    25    26    1
    14     8     9   ar
    15    12     9    1
    16    12    13    1
    17    13    14    1
    18    14    15    1
    19    15    16    1
    20    16    17    1
    21     9    10   ar
    22    10    11   ar
    23    11     1   ar
    24    10     5   ar
    25    26    24    1
    26    17    12    1
    27    19    22    1
    28    19    23    1
    29    16    18    1
@<TRIPOS>MOLECULE
*****
 26 29 0 0 0
SMALL
GASTEIGER

@<TRIPOS>ATOM
      1 C         141.2247  141.8551  169.8157 C.ar    1  UNL1        0.1366
      2 C         141.6452  140.4842  170.2561 C.ar    1  UNL1        0.0353
      3 C         142.3533  139.5730  169.2978 C.ar    1  UNL1        0.0630
      4 CL        142.7738  138.2021  169.7382 Cl      1  UNL1       -0.0821
      5 C         142.6407  140.0325  167.8992 C.ar    1  UNL1        0.0564
      6 C         143.3173  139.3609  166.7411 C.ar    1  UNL1        0.0730
      7 CL        143.8949  137.9766  166.7394 Cl      1  UNL1       -0.0810
      8 C         143.3149  140.3167  165.5850 C.ar    1  UNL1        0.0486
      9 N         142.6369  141.5790  166.0286 N.ar    1  UNL1       -0.3160
     10 C         142.2202  141.4033  167.4589 C.ar    1  UNL1        0.1453
     11 N         141.5122  142.3146  168.4171 N.ar    1  UNL1       -0.2236
     12 C         142.4145  142.8021  165.1893 C.3     1  UNL1        0.1023
     13 C         143.5847  143.6247  164.7377 C.3     1  UNL1        0.0254
     14 C         143.3622  144.8479  163.8984 C.3     1  UNL1        0.0191
     15 C         141.9696  145.2485  163.5108 C.3     1  UNL1        0.0687
     16 N         140.7994  144.4259  163.9624 N.3     1  UNL1       -0.2959
     17 C         141.0219  143.2027  164.8017 C.3     1  UNL1        0.0914
     18 H         140.3117  144.1204  163.1203 H       1  UNL1        0.1233
     19 N         140.0523  144.1182  170.3193 N.am    1  UNL1       -0.3241
     20 C         140.5167  142.7663  170.7740 C.2     1  UNL1        0.2606
     21 O         140.2730  142.3258  172.1870 O.2     1  UNL1       -0.2687
     22 H         139.5876  144.7163  170.9483 H       1  UNL1        0.1453
     23 H         140.2122  144.4074  169.3919 H       1  UNL1        0.1453
     24 C         143.8897  140.0558  164.2242 C.3     1  UNL1        0.0392
     25 C         143.9786  139.2034  162.9932 C.3     1  UNL1        0.0063
     26 C         144.7963  140.4565  163.0984 C.3     1  UNL1        0.0063
@<TRIPOS>BOND
     1    19    20   am
     2    20    21    2
     3    20     1    1
     4     1     2   ar
     5     2     3   ar
     6     3     4    1
     7     3     5   ar
     8     5     6   ar
     9     6     7    1
    10     6     8   ar
    11     8    24    1
    12    24    25    1
    13    25    26    1
    14     8     9   ar
    15    12     9    1
    16    12    13    1
    17    13    14    1
    18    14    15    1
    19    15    16    1
    20    16    17    1
    21     9    10   ar
    22    10    11   ar
    23    11     1   ar
    24    10     5   ar
    25    26    24    1
    26    17    12    1
    27    19    22    1
    28    19    23    1
    29    16    18    1
@<TRIPOS>MOLECULE
*****
 26 29 0 0 0
SMALL
GASTEIGER

@<TRIPOS>ATOM
      1 C         139.8428  138.5759  163.5333 C.ar    1  UNL1        0.1366
      2 C         138.9065  137.8683  164.4674 C.ar    1  UNL1        0.0353
      3 C         138.7237  138.3705  165.8690 C.ar    1  UNL1        0.0630
      4 CL        137.7874  137.6628  166.8031 Cl      1  UNL1       -0.0821
      5 C         139.4772  139.5803  166.3364 C.ar    1  UNL1        0.0564
      6 C         139.5012  140.3018  167.6513 C.ar    1  UNL1        0.0730
      7 CL        138.7126  139.9342  168.8731 Cl      1  UNL1       -0.0810
      8 C         140.4524  141.4553  167.5298 C.ar    1  UNL1        0.0486
      9 N         141.0162  141.4468  166.1398 N.ar    1  UNL1       -0.3160
     10 C         140.4135  140.2879  165.4023 C.ar    1  UNL1        0.1453
     11 N         140.5962  139.7857  164.0007 N.ar    1  UNL1       -0.2236
     12 C         142.0085  142.4252  165.5848 C.3     1  UNL1        0.1023
     13 C         143.4456  142.3585  166.0096 C.3     1  UNL1        0.0254
     14 C         144.4378  143.3370  165.4545 C.3     1  UNL1        0.0191
     15 C         143.9930  144.3821  164.4748 C.3     1  UNL1        0.0687
     16 N         142.5559  144.4487  164.0500 N.3     1  UNL1       -0.2959
     17 C         141.5637  143.4703  164.6051 C.3     1  UNL1        0.0914
     18 H         142.5431  144.3380  163.0361 H       1  UNL1        0.1233
     19 N         138.9180  138.2227  161.1312 N.am    1  UNL1       -0.3241
     20 C         140.0256  138.0737  162.1317 C.2     1  UNL1        0.2606
     21 O         141.3159  137.4224  161.7307 O.2     1  UNL1       -0.2687
     22 H         139.0380  137.8931  160.2113 H       1  UNL1        0.1453
     23 H         138.0711  138.6502  161.3944 H       1  UNL1        0.1453
     24 C         140.7819  142.4438  168.6089 C.3     1  UNL1        0.0392
     25 C         141.7516  143.0001  169.6090 C.3     1  UNL1        0.0063
     26 C         140.3829  143.5995  169.4778 C.3     1  UNL1        0.0063
@<TRIPOS>BOND
     1    19    20   am
     2    20    21    2
     3    20     1    1
     4     1     2   ar
     5     2     3   ar
     6     3     4    1
     7     3     5   ar
     8     5     6   ar
     9     6     7    1
    10     6     8   ar
    11     8    24    1
    12    24    25    1
    13    25    26    1
    14     8     9   ar
    15    12     9    1
    16    12    13    1
    17    13    14    1
    18    14    15    1
    19    15    16    1
    20    16    17    1
    21     9    10   ar
    22    10    11   ar
    23    11     1   ar
    24    10     5   ar
    25    26    24    1
    26    17    12    1
    27    19    22    1
    28    19    23    1
    29    16    18    1
@<TRIPOS>MOLECULE
*****
 26 29 0 0 0
SMALL
GASTEIGER

@<TRIPOS>ATOM
      1 C         140.7869  141.9234  169.4995 C.ar    1  UNL1        0.1366
      2 C         141.6734  140.7475  169.7847 C.ar    1  UNL1        0.0353
      3 C         142.1102  139.8488  168.6660 C.ar    1  UNL1        0.0630
      4 CL        142.9967  138.6728  168.9513 Cl      1  UNL1       -0.0821
      5 C         141.6607  140.1260  167.2621 C.ar    1  UNL1        0.0564
      6 C         141.9276  139.4214  165.9651 C.ar    1  UNL1        0.0730
      7 CL        142.7684  138.1922  165.7863 Cl      1  UNL1       -0.0810
      8 C         141.2061  140.1619  164.8782 C.ar    1  UNL1        0.0486
      9 N         140.4933  141.3241  165.5036 N.ar    1  UNL1       -0.3160
     10 C         140.7742  141.3019  166.9769 C.ar    1  UNL1        0.1453
     11 N         140.3374  142.2006  168.0956 N.ar    1  UNL1       -0.2236
     12 C         139.6479  142.3317  164.7823 C.3     1  UNL1        0.1023
     13 C         140.0603  143.7736  164.7534 C.3     1  UNL1        0.0254
     14 C         139.2149  144.7810  164.0321 C.3     1  UNL1        0.0191
     15 C         137.9572  144.3466  163.3397 C.3     1  UNL1        0.0687
     16 N         137.5448  142.9047  163.3686 N.3     1  UNL1       -0.2959
     17 C         138.3902  141.8973  164.0899 C.3     1  UNL1        0.0914
     18 H         137.4831  142.5966  162.3982 H       1  UNL1        0.1233
     19 N         139.9659  144.2435  170.3320 N.am    1  UNL1       -0.3241
     20 C         140.3501  142.8221  170.6182 C.2     1  UNL1        0.2606
     21 O         140.2974  142.2994  172.0232 O.2     1  UNL1       -0.2687
     22 H         139.6791  144.8333  171.0662 H       1  UNL1        0.1453
     23 H         140.0004  144.5866  169.4098 H       1  UNL1        0.1453
     24 C         141.1988  139.8031  163.4218 C.3     1  UNL1        0.0392
     25 C         141.1721  140.2203  161.9812 C.3     1  UNL1        0.0063
     26 C         141.2128  138.7644  162.3397 C.3     1  UNL1        0.0063
@<TRIPOS>BOND
     1    19    20   am
     2    20    21    2
     3    20     1    1
     4     1     2   ar
     5     2     3   ar
     6     3     4    1
     7     3     5   ar
     8     5     6   ar
     9     6     7    1
    10     6     8   ar
    11     8    24    1
    12    24    25    1
    13    25    26    1
    14     8     9   ar
    15    12     9    1
    16    12    13    1
    17    13    14    1
    18    14    15    1
    19    15    16    1
    20    16    17    1
    21     9    10   ar
    22    10    11   ar
    23    11     1   ar
    24    10     5   ar
    25    26    24    1
    26    17    12    1
    27    19    22    1
    28    19    23    1
    29    16    18    1
@<TRIPOS>MOLECULE
*****
 26 29 0 0 0
SMALL
GASTEIGER

@<TRIPOS>ATOM
      1 C         142.1142  142.0475  169.0579 C.ar    1  UNL1        0.1366
      2 C         140.9305  141.2335  169.4894 C.ar    1  UNL1        0.0353
      3 C         139.9806  140.6891  168.4640 C.ar    1  UNL1        0.0630
      4 CL        138.7968  139.8751  168.8956 Cl      1  UNL1       -0.0821
      5 C         140.2145  140.9587  167.0071 C.ar    1  UNL1        0.0564
      6 C         139.4556  140.5563  165.7774 C.ar    1  UNL1        0.0730
      7 CL        138.2021  139.7332  165.7450 Cl      1  UNL1       -0.0810
      8 C         140.1703  141.1216  164.5859 C.ar    1  UNL1        0.0486
      9 N         141.3709  141.8734  165.0792 N.ar    1  UNL1       -0.3160
     10 C         141.3982  141.7727  166.5756 C.ar    1  UNL1        0.1453
     11 N         142.3481  142.3171  167.6010 N.ar    1  UNL1       -0.2236
     12 C         142.3690  142.5985  164.2260 C.3     1  UNL1        0.1023
     13 C         142.2171  144.0705  163.9807 C.3     1  UNL1        0.0254
     14 C         143.2152  144.7955  163.1274 C.3     1  UNL1        0.0191
     15 C         144.3652  144.0486  162.5195 C.3     1  UNL1        0.0687
     16 N         144.5171  142.5766  162.7648 N.3     1  UNL1       -0.2959
     17 C         143.5190  141.8516  163.6180 C.3     1  UNL1        0.0914
     18 H         145.4294  142.4434  163.2011 H       1  UNL1        0.1233
     19 N         142.5742  142.9112  171.4646 N.am    1  UNL1       -0.3241
     20 C         143.0640  142.5919  170.0833 C.2     1  UNL1        0.2606
     21 O         144.5037  142.8170  169.7274 O.2     1  UNL1       -0.2687
     22 H         143.1976  143.2685  172.1376 H       1  UNL1        0.1453
     23 H         141.6293  142.7634  171.6983 H       1  UNL1        0.1453
     24 C         139.7569  140.9629  163.1527 C.3     1  UNL1        0.0392
     25 C         138.7314  140.5650  162.1329 C.3     1  UNL1        0.0063
     26 C         140.0665  141.0860  161.6902 C.3     1  UNL1        0.0063
@<TRIPOS>BOND
     1    19    20   am
     2    20    21    2
     3    20     1    1
     4     1     2   ar
     5     2     3   ar
     6     3     4    1
     7     3     5   ar
     8     5     6   ar
     9     6     7    1
    10     6     8   ar
    11     8    24    1
    12    24    25    1
    13    25    26    1
    14     8     9   ar
    15    12     9    1
    16    12    13    1
    17    13    14    1
    18    14    15    1
    19    15    16    1
    20    16    17    1
    21     9    10   ar
    22    10    11   ar
    23    11     1   ar
    24    10     5   ar
    25    26    24    1
    26    17    12    1
    27    19    22    1
    28    19    23    1
    29    16    18    1
@<TRIPOS>MOLECULE
*****
 26 29 0 0 0
SMALL
GASTEIGER

@<TRIPOS>ATOM
      1 C         140.8044  141.4655  169.4257 C.ar    1  UNL1        0.1366
      2 C         139.5294  140.6836  169.5399 C.ar    1  UNL1        0.0353
      3 C         139.0624  139.8387  168.3918 C.ar    1  UNL1        0.0630
      4 CL        137.7873  139.0567  168.5060 Cl      1  UNL1       -0.0821
      5 C         139.8703  139.7756  167.1296 C.ar    1  UNL1        0.0564
      6 C         139.6636  139.0355  165.8414 C.ar    1  UNL1        0.0730
      7 CL        138.5118  138.1299  165.5200 Cl      1  UNL1       -0.0810
      8 C         140.8108  139.3599  164.9311 C.ar    1  UNL1        0.0486
      9 N         141.7265  140.3006  165.6566 N.ar    1  UNL1       -0.3160
     10 C         141.1453  140.5575  167.0154 C.ar    1  UNL1        0.1453
     11 N         141.6123  141.4024  168.1635 N.ar    1  UNL1       -0.2236
     12 C         142.9999  140.8823  165.1181 C.3     1  UNL1        0.1023
     13 C         144.1005  139.9757  164.6522 C.3     1  UNL1        0.0254
     14 C         145.3738  140.5574  164.1136 C.3     1  UNL1        0.0191
     15 C         145.5467  142.0457  164.0409 C.3     1  UNL1        0.0687
     16 N         144.4462  142.9522  164.5068 N.3     1  UNL1       -0.2959
     17 C         143.1728  142.3705  165.0453 C.3     1  UNL1        0.0914
     18 H         144.1895  143.5367  163.7112 H       1  UNL1        0.1233
     19 N         142.3896  143.2907  170.3773 N.am    1  UNL1       -0.3241
     20 C         141.2714  142.3104  170.5737 C.2     1  UNL1        0.2606
     21 O         140.6202  142.1751  171.9182 O.2     1  UNL1       -0.2687
     22 H         142.6961  143.8452  171.1308 H       1  UNL1        0.1453
     23 H         142.8170  143.3795  169.4949 H       1  UNL1        0.1453
     24 C         141.0076  138.8357  163.5395 C.3     1  UNL1        0.0392
     25 C         140.7983  138.9674  162.0600 C.3     1  UNL1        0.0063
     26 C         141.5577  137.7960  162.6087 C.3     1  UNL1        0.0063
@<TRIPOS>BOND
     1    19    20   am
     2    20    21    2
     3    20     1    1
     4     1     2   ar
     5     2     3   ar
     6     3     4    1
     7     3     5   ar
     8     5     6   ar
     9     6     7    1
    10     6     8   ar
    11     8    24    1
    12    24    25    1
    13    25    26    1
    14     8     9   ar
    15    12     9    1
    16    12    13    1
    17    13    14    1
    18    14    15    1
    19    15    16    1
    20    16    17    1
    21     9    10   ar
    22    10    11   ar
    23    11     1   ar
    24    10     5   ar
    25    26    24    1
    26    17    12    1
    27    19    22    1
    28    19    23    1
    29    16    18    1
@<TRIPOS>MOLECULE
*****
 26 29 0 0 0
SMALL
GASTEIGER

@<TRIPOS>ATOM
      1 C         140.0307  141.0732  168.9867 C.ar    1  UNL1        0.1366
      2 C         139.0430  139.9686  168.7540 C.ar    1  UNL1        0.0353
      3 C         138.7279  139.5265  167.3557 C.ar    1  UNL1        0.0630
      4 CL        137.7401  138.4218  167.1231 Cl      1  UNL1       -0.0821
      5 C         139.4005  140.1889  166.1901 C.ar    1  UNL1        0.0564
      6 C         139.2916  139.9686  164.7104 C.ar    1  UNL1        0.0730
      7 CL        138.4159  138.9574  164.0317 Cl      1  UNL1       -0.0810
      8 C         140.2120  140.9371  164.0285 C.ar    1  UNL1        0.0486
      9 N         140.8898  141.7559  165.0868 N.ar    1  UNL1       -0.3160
     10 C         140.3882  141.2935  166.4228 C.ar    1  UNL1        0.1453
     11 N         140.7033  141.7357  167.8211 N.ar    1  UNL1       -0.2236
     12 C         141.8930  142.8458  164.8507 C.3     1  UNL1        0.1023
     13 C         143.3171  142.6610  165.2839 C.3     1  UNL1        0.0254
     14 C         144.3202  143.7510  165.0477 C.3     1  UNL1        0.0191
     15 C         143.8992  145.0256  164.3784 C.3     1  UNL1        0.0687
     16 N         142.4751  145.2104  163.9452 N.3     1  UNL1       -0.2959
     17 C         141.4720  144.1205  164.1814 C.3     1  UNL1        0.0914
     18 H         142.4929  145.3814  162.9398 H       1  UNL1        0.1233
     19 N         140.4490  140.5025  171.4865 N.am    1  UNL1       -0.3241
     20 C         140.3459  141.5154  170.3850 C.2     1  UNL1        0.2606
     21 O         140.5578  142.9703  170.6817 O.2     1  UNL1       -0.2687
     22 H         140.6559  140.7927  172.4042 H       1  UNL1        0.1453
     23 H         140.3099  139.5476  171.2918 H       1  UNL1        0.1453
     24 C         140.4184  141.0643  162.5482 C.3     1  UNL1        0.0392
     25 C         141.3341  141.0718  161.3601 C.3     1  UNL1        0.0063
     26 C         139.8601  141.2770  161.1723 C.3     1  UNL1        0.0063
@<TRIPOS>BOND
     1    19    20   am
     2    20    21    2
     3    20     1    1
     4     1     2   ar
     5     2     3   ar
     6     3     4    1
     7     3     5   ar
     8     5     6   ar
     9     6     7    1
    10     6     8   ar
    11     8    24    1
    12    24    25    1
    13    25    26    1
    14     8     9   ar
    15    12     9    1
    16    12    13    1
    17    13    14    1
    18    14    15    1
    19    15    16    1
    20    16    17    1
    21     9    10   ar
    22    10    11   ar
    23    11     1   ar
    24    10     5   ar
    25    26    24    1
    26    17    12    1
    27    19    22    1
    28    19    23    1
    29    16    18    1
@<TRIPOS>MOLECULE
*****
 26 29 0 0 0
SMALL
GASTEIGER

@<TRIPOS>ATOM
      1 C         140.4410  140.9483  169.4090 C.ar    1  UNL1        0.1366
      2 C         141.7961  141.4054  169.8613 C.ar    1  UNL1        0.0353
      3 C         142.7495  142.0146  168.8764 C.ar    1  UNL1        0.0630
      4 CL        144.1047  142.4716  169.3287 Cl      1  UNL1       -0.0821
      5 C         142.3476  142.1668  167.4393 C.ar    1  UNL1        0.0564
      6 C         143.0692  142.7262  166.2492 C.ar    1  UNL1        0.0730
      7 CL        144.4565  143.2967  166.2472 Cl      1  UNL1       -0.0810
      8 C         142.1599  142.6149  165.0613 C.ar    1  UNL1        0.0486
      9 N         140.8764  141.9867  165.5174 N.ar    1  UNL1       -0.3160
     10 C         140.9925  141.7098  166.9871 C.ar    1  UNL1        0.1453
     11 N         140.0391  141.1006  167.9719 N.ar    1  UNL1       -0.2236
     12 C         139.6859  141.6879  164.6552 C.3     1  UNL1        0.1023
     13 C         138.7421  142.7890  164.2720 C.3     1  UNL1        0.0254
     14 C         137.5516  142.4901  163.4098 C.3     1  UNL1        0.0191
     15 C         137.3050  141.0902  162.9308 C.3     1  UNL1        0.0687
     16 N         138.2489  139.9891  163.3139 N.3     1  UNL1       -0.2959
     17 C         139.4393  140.2880  164.1761 C.3     1  UNL1        0.0914
     18 H         138.6067  139.5924  162.4450 H       1  UNL1        0.1233
     19 N         139.9722  139.3031  171.3644 N.am    1  UNL1       -0.3241
     20 C         139.4876  140.3391  170.3939 C.2     1  UNL1        0.2606
     21 O         138.0497  140.7658  170.4083 O.2     1  UNL1       -0.2687
     22 H         139.3465  138.9033  172.0108 H       1  UNL1        0.1453
     23 H         140.9160  139.0230  171.3550 H       1  UNL1        0.1453
     24 C         142.4784  143.0545  163.6630 C.3     1  UNL1        0.0392
     25 C         142.2461  142.9527  162.1846 C.3     1  UNL1        0.0063
     26 C         143.2622  143.9178  162.7194 C.3     1  UNL1        0.0063
@<TRIPOS>BOND
     1    19    20   am
     2    20    21    2
     3    20     1    1
     4     1     2   ar
     5     2     3   ar
     6     3     4    1
     7     3     5   ar
     8     5     6   ar
     9     6     7    1
    10     6     8   ar
    11     8    24    1
    12    24    25    1
    13    25    26    1
    14     8     9   ar
    15    12     9    1
    16    12    13    1
    17    13    14    1
    18    14    15    1
    19    15    16    1
    20    16    17    1
    21     9    10   ar
    22    10    11   ar
    23    11     1   ar
    24    10     5   ar
    25    26    24    1
    26    17    12    1
    27    19    22    1
    28    19    23    1
    29    16    18    1
@<TRIPOS>MOLECULE
*****
 26 29 0 0 0
SMALL
GASTEIGER

@<TRIPOS>ATOM
      1 C         139.8201  144.0887  162.2888 C.ar    1  UNL1        0.1366
      2 C         139.2364  144.8139  163.4650 C.ar    1  UNL1        0.0353
      3 C         139.4830  144.3083  164.8555 C.ar    1  UNL1        0.0630
      4 CL        138.8993  145.0336  166.0317 Cl      1  UNL1       -0.0821
      5 C         140.3131  143.0775  165.0699 C.ar    1  UNL1        0.0564
      6 C         140.7240  142.3482  166.3145 C.ar    1  UNL1        0.0730
      7 CL        140.3610  142.7281  167.7195 Cl      1  UNL1       -0.0810
      8 C         141.5616  141.1722  165.9076 C.ar    1  UNL1        0.0486
      9 N         141.6684  141.1748  164.4114 N.ar    1  UNL1       -0.3160
     10 C         140.8967  142.3524  163.8937 C.ar    1  UNL1        0.1453
     11 N         140.6502  142.8580  162.5031 N.ar    1  UNL1       -0.2236
     12 C         142.4155  140.1753  163.5791 C.3     1  UNL1        0.1023
     13 C         141.7052  138.9708  163.0363 C.3     1  UNL1        0.0254
     14 C         142.4525  137.9714  162.2040 C.3     1  UNL1        0.0191
     15 C         143.9099  138.1764  161.9145 C.3     1  UNL1        0.0687
     16 N         144.6202  139.3809  162.4573 N.3     1  UNL1       -0.2959
     17 C         143.8730  140.3803  163.2896 C.3     1  UNL1        0.0914
     18 H         144.9958  139.8874  161.6556 H       1  UNL1        0.1233
     19 N         139.2840  143.6272  159.7889 N.am    1  UNL1       -0.3241
     20 C         139.5735  144.5943  160.8983 C.2     1  UNL1        0.2606
     21 O         139.6166  146.0671  160.6171 O.2     1  UNL1       -0.2687
     22 H         139.1222  143.9590  158.8762 H       1  UNL1        0.1453
     23 H         139.2557  142.6605  159.9734 H       1  UNL1        0.1453
     24 C         142.1832  140.1697  166.8342 C.3     1  UNL1        0.0392
     25 C         143.0184  138.9424  167.0490 C.3     1  UNL1        0.0063
     26 C         142.4246  139.6606  168.2244 C.3     1  UNL1        0.0063
@<TRIPOS>BOND
     1    19    20   am
     2    20    21    2
     3    20     1    1
     4     1     2   ar
     5     2     3   ar
     6     3     4    1
     7     3     5   ar
     8     5     6   ar
     9     6     7    1
    10     6     8   ar
    11     8    24    1
    12    24    25    1
    13    25    26    1
    14     8     9   ar
    15    12     9    1
    16    12    13    1
    17    13    14    1
    18    14    15    1
    19    15    16    1
    20    16    17    1
    21     9    10   ar
    22    10    11   ar
    23    11     1   ar
    24    10     5   ar
    25    26    24    1
    26    17    12    1
    27    19    22    1
    28    19    23    1
    29    16    18    1
