@<TRIPOS>MOLECULE
*****
 22 23 0 0 0
SMALL
GASTEIGER

@<TRIPOS>ATOM
      1 C         141.4551  141.7855  169.6864 C.ar    1  UNL1        0.1219
      2 C         140.2358  141.3432  170.4399 C.ar    1  UNL1        0.0230
      3 C         139.2259  140.4541  169.7769 C.ar    1  UNL1        0.0383
      4 C         139.4353  140.0072  168.3604 C.ar    1  UNL1        0.1386
      5 C         140.6546  140.4495  167.6069 C.ar    1  UNL1        0.0383
      6 C         141.6645  141.3386  168.2699 C.ar    1  UNL1        0.0230
      7 N         143.4749  143.5637  171.0124 N.3     1  UNL1       -0.2035
      8 S         142.4650  142.6746  170.3494 S.O2    1  UNL1        0.0572
      9 O         143.2139  142.7893  169.0548 O.2     1  UNL1       -0.1532
     10 O         141.7161  142.5599  171.6440 O.2     1  UNL1       -0.1532
     11 H         144.3965  143.1298  170.9597 H       1  UNL1        0.1442
     12 H         143.2184  143.6995  171.9903 H       1  UNL1        0.1442
     13 O         138.4254  139.1181  167.6974 O.3     1  UNL1       -0.4754
     14 C         138.6213  138.6930  166.2723 C.3     1  UNL1        0.2068
     15 C         138.0818  139.5382  165.1566 C.3     1  UNL1        0.0646
     16 C         139.0180  140.3460  164.3075 C.3     1  UNL1        0.0759
     17 N         139.0548  141.8393  164.4440 N.3     1  UNL1       -0.2726
     18 C         140.3700  142.5479  164.5783 C.3     1  UNL1        0.0721
     19 C         140.4069  144.0413  164.7147 C.3     1  UNL1        0.0174
     20 C         139.1286  144.8260  164.7169 C.3     1  UNL1        0.0029
     21 C         137.8133  144.1174  164.5827 C.3     1  UNL1        0.0174
     22 C         137.7764  142.6240  164.4462 C.3     1  UNL1        0.0721
@<TRIPOS>BOND
     1     7     8    1
     2     8     9    2
     3     8    10    2
     4     8     1    1
     5     1     2   ar
     6     2     3   ar
     7     3     4   ar
     8     4    13    1
     9    13    14    1
    10    14    15    1
    11    15    16    1
    12    16    17    1
    13    17    18    1
    14    18    19    1
    15    19    20    1
    16    20    21    1
    17    21    22    1
    18     4     5   ar
    19     5     6   ar
    20     6     1   ar
    21    22    17    1
    22     7    11    1
    23     7    12    1
@<TRIPOS>MOLECULE
*****
 22 23 0 0 0
SMALL
GASTEIGER

@<TRIPOS>ATOM
      1 C         141.5094  141.7711  169.7649 C.ar    1  UNL1        0.1219
      2 C         141.8349  141.0556  168.4875 C.ar    1  UNL1        0.0230
      3 C         140.8201  140.1491  167.8561 C.ar    1  UNL1        0.0383
      4 C         139.4800  139.9582  168.5022 C.ar    1  UNL1        0.1386
      5 C         139.1545  140.6738  169.7797 C.ar    1  UNL1        0.0383
      6 C         140.1693  141.5802  170.4111 C.ar    1  UNL1        0.0230
      7 N         143.5389  143.5841  171.0277 N.3     1  UNL1       -0.2035
      8 S         142.5242  142.6776  170.3963 S.O2    1  UNL1        0.0572
      9 O         141.8173  142.5515  171.7133 O.2     1  UNL1       -0.1532
     10 O         143.2310  142.8037  169.0793 O.2     1  UNL1       -0.1532
     11 H         143.0722  144.4135  171.3947 H       1  UNL1        0.1442
     12 H         144.2275  143.8627  170.3287 H       1  UNL1        0.1442
     13 O         138.4652  139.0517  167.8708 O.3     1  UNL1       -0.4754
     14 C         138.5996  138.6654  166.4277 C.3     1  UNL1        0.2068
     15 C         137.9354  139.4902  165.3654 C.3     1  UNL1        0.0646
     16 C         138.7668  140.3041  164.4185 C.3     1  UNL1        0.0759
     17 N         138.7383  141.8020  164.4928 N.3     1  UNL1       -0.2726
     18 C         137.8656  142.5829  163.5555 C.3     1  UNL1        0.0721
     19 C         137.8370  144.0807  163.6297 C.3     1  UNL1        0.0174
     20 C         138.6812  144.7977  164.6413 C.3     1  UNL1        0.0029
     21 C         139.5539  144.0169  165.5786 C.3     1  UNL1        0.0174
     22 C         139.5825  142.5190  165.5044 C.3     1  UNL1        0.0721
@<TRIPOS>BOND
     1     7     8    1
     2     8     9    2
     3     8    10    2
     4     8     1    1
     5     1     2   ar
     6     2     3   ar
     7     3     4   ar
     8     4    13    1
     9    13    14    1
    10    14    15    1
    11    15    16    1
    12    16    17    1
    13    17    18    1
    14    18    19    1
    15    19    20    1
    16    20    21    1
    17    21    22    1
    18     4     5   ar
    19     5     6   ar
    20     6     1   ar
    21    22    17    1
    22     7    11    1
    23     7    12    1
@<TRIPOS>MOLECULE
*****
 22 23 0 0 0
SMALL
GASTEIGER

@<TRIPOS>ATOM
      1 C         141.3876  141.7547  169.6956 C.ar    1  UNL1        0.1219
      2 C         141.6140  141.2728  168.2933 C.ar    1  UNL1        0.0230
      3 C         140.6065  140.3764  167.6365 C.ar    1  UNL1        0.0383
      4 C         139.3727  139.9619  168.3820 C.ar    1  UNL1        0.1386
      5 C         139.1463  140.4438  169.7843 C.ar    1  UNL1        0.0383
      6 C         140.1538  141.3402  170.4411 C.ar    1  UNL1        0.0230
      7 N         143.4026  143.5476  171.0093 N.3     1  UNL1       -0.2035
      8 S         142.3951  142.6511  170.3525 S.O2    1  UNL1        0.0572
      9 O         143.1103  142.8067  169.0432 O.2     1  UNL1       -0.1532
     10 O         141.6799  142.4956  171.6618 O.2     1  UNL1       -0.1532
     11 H         144.3311  143.1338  170.9261 H       1  UNL1        0.1442
     12 H         143.1669  143.6587  171.9955 H       1  UNL1        0.1442
     13 O         138.3652  139.0654  167.7251 O.3     1  UNL1       -0.4754
     14 C         138.2374  139.0491  166.2307 C.3     1  UNL1        0.2068
     15 C         138.6956  137.8520  165.4518 C.3     1  UNL1        0.0646
     16 C         139.6437  138.0233  164.3020 C.3     1  UNL1        0.0759
     17 N         140.9468  138.7380  164.5046 N.3     1  UNL1       -0.2726
     18 C         142.0872  138.0401  165.1846 C.3     1  UNL1        0.0721
     19 C         143.3903  138.7548  165.3872 C.3     1  UNL1        0.0174
     20 C         143.5531  140.1674  164.9098 C.3     1  UNL1        0.0029
     21 C         142.4127  140.8654  164.2297 C.3     1  UNL1        0.0174
     22 C         141.1096  140.1507  164.0272 C.3     1  UNL1        0.0721
@<TRIPOS>BOND
     1     7     8    1
     2     8     9    2
     3     8    10    2
     4     8     1    1
     5     1     2   ar
     6     2     3   ar
     7     3     4   ar
     8     4    13    1
     9    13    14    1
    10    14    15    1
    11    15    16    1
    12    16    17    1
    13    17    18    1
    14    18    19    1
    15    19    20    1
    16    20    21    1
    17    21    22    1
    18     4     5   ar
    19     5     6   ar
    20     6     1   ar
    21    22    17    1
    22     7    11    1
    23     7    12    1
@<TRIPOS>MOLECULE
*****
 22 23 0 0 0
SMALL
GASTEIGER

@<TRIPOS>ATOM
      1 C         140.8474  142.8039  169.2880 C.ar    1  UNL1        0.1219
      2 C         140.3187  142.7126  167.8873 C.ar    1  UNL1        0.0230
      3 C         141.2513  142.4113  166.7517 C.ar    1  UNL1        0.0383
      4 C         142.7126  142.2013  167.0169 C.ar    1  UNL1        0.1386
      5 C         143.2414  142.2926  168.4176 C.ar    1  UNL1        0.0383
      6 C         142.3087  142.5939  169.5532 C.ar    1  UNL1        0.0230
      7 N         138.9822  143.4066  171.5591 N.3     1  UNL1       -0.2035
      8 S         139.9148  143.1052  170.4235 S.O2    1  UNL1        0.0572
      9 O         140.1592  144.5731  170.2347 O.2     1  UNL1       -0.1532
     10 O         139.6704  141.6374  170.6123 O.2     1  UNL1       -0.1532
     11 H         139.4895  143.8994  172.2940 H       1  UNL1        0.1442
     12 H         138.6067  142.5343  171.9313 H       1  UNL1        0.1442
     13 O         143.6453  141.9000  165.8814 O.3     1  UNL1       -0.4754
     14 C         143.1257  141.2383  164.6395 C.3     1  UNL1        0.2068
     15 C         142.8071  142.0628  163.4276 C.3     1  UNL1        0.0646
     16 C         141.4487  141.9758  162.7973 C.3     1  UNL1        0.0759
     17 N         140.2828  142.6779  163.4281 N.3     1  UNL1       -0.2726
     18 C         139.0376  141.9116  163.7628 C.3     1  UNL1        0.0721
     19 C         137.8717  142.6136  164.3936 C.3     1  UNL1        0.0174
     20 C         137.9511  144.0819  164.6897 C.3     1  UNL1        0.0029
     21 C         139.1964  144.8483  164.3550 C.3     1  UNL1        0.0174
     22 C         140.3623  144.1463  163.7242 C.3     1  UNL1        0.0721
@<TRIPOS>BOND
     1     7     8    1
     2     8     9    2
     3     8    10    2
     4     8     1    1
     5     1     2   ar
     6     2     3   ar
     7     3     4   ar
     8     4    13    1
     9    13    14    1
    10    14    15    1
    11    15    16    1
    12    16    17    1
    13    17    18    1
    14    18    19    1
    15    19    20    1
    16    20    21    1
    17    21    22    1
    18     4     5   ar
    19     5     6   ar
    20     6     1   ar
    21    22    17    1
    22     7    11    1
    23     7    12    1
@<TRIPOS>MOLECULE
*****
 22 23 0 0 0
SMALL
GASTEIGER

@<TRIPOS>ATOM
      1 C         140.5823  140.0418  169.0598 C.ar    1  UNL1        0.1219
      2 C         139.2562  139.9428  168.3660 C.ar    1  UNL1        0.0230
      3 C         139.1984  139.6394  166.8982 C.ar    1  UNL1        0.0383
      4 C         140.4669  139.4351  166.1241 C.ar    1  UNL1        0.1386
      5 C         141.7931  139.5341  166.8179 C.ar    1  UNL1        0.0383
      6 C         141.8508  139.8375  168.2858 C.ar    1  UNL1        0.0230
      7 N         140.6978  140.6486  171.9956 N.3     1  UNL1       -0.2035
      8 S         140.6401  140.3452  170.5277 S.O2    1  UNL1        0.0572
      9 O         139.2268  139.8668  170.6821 O.2     1  UNL1       -0.1532
     10 O         142.0533  140.8236  170.3732 O.2     1  UNL1       -0.1532
     11 H         139.9869  141.3423  172.2276 H       1  UNL1        0.1442
     12 H         141.6201  141.0151  172.2310 H       1  UNL1        0.1442
     13 O         140.4092  139.1317  164.6562 O.3     1  UNL1       -0.4754
     14 C         139.1162  138.7010  164.0297 C.3     1  UNL1        0.2068
     15 C         138.3261  139.6686  163.1993 C.3     1  UNL1        0.0646
     16 C         138.9711  140.9258  162.6958 C.3     1  UNL1        0.0759
     17 N         138.9854  142.1567  163.5529 N.3     1  UNL1       -0.2726
     18 C         137.7169  142.9222  163.7871 C.3     1  UNL1        0.0721
     19 C         137.7311  144.1531  164.6443 C.3     1  UNL1        0.0174
     20 C         139.0138  144.6185  165.2672 C.3     1  UNL1        0.0029
     21 C         140.2824  143.8529  165.0330 C.3     1  UNL1        0.0174
     22 C         140.2681  142.6220  164.1759 C.3     1  UNL1        0.0721
@<TRIPOS>BOND
     1     7     8    1
     2     8     9    2
     3     8    10    2
     4     8     1    1
     5     1     2   ar
     6     2     3   ar
     7     3     4   ar
     8     4    13    1
     9    13    14    1
    10    14    15    1
    11    15    16    1
    12    16    17    1
    13    17    18    1
    14    18    19    1
    15    19    20    1
    16    20    21    1
    17    21    22    1
    18     4     5   ar
    19     5     6   ar
    20     6     1   ar
    21    22    17    1
    22     7    11    1
    23     7    12    1
@<TRIPOS>MOLECULE
*****
 22 23 0 0 0
SMALL
GASTEIGER

@<TRIPOS>ATOM
      1 C         140.8088  141.3609  169.1933 C.ar    1  UNL1        0.1219
      2 C         139.8052  140.2501  169.1002 C.ar    1  UNL1        0.0230
      3 C         139.2592  139.8426  167.7638 C.ar    1  UNL1        0.0383
      4 C         139.7169  140.5460  166.5205 C.ar    1  UNL1        0.1386
      5 C         140.7205  141.6568  166.6137 C.ar    1  UNL1        0.0383
      6 C         141.2665  142.0643  167.9501 C.ar    1  UNL1        0.0230
      7 N         141.9007  142.1757  171.8661 N.3     1  UNL1       -0.2035
      8 S         141.3548  141.7683  170.5297 S.O2    1  UNL1        0.0572
      9 O         142.3761  142.6309  169.8494 O.2     1  UNL1       -0.1532
     10 O         140.3334  140.9057  171.2099 O.2     1  UNL1       -0.1532
     11 H         142.8785  141.8934  171.9343 H       1  UNL1        0.1442
     12 H         141.3636  141.7225  172.6053 H       1  UNL1        0.1442
     13 O         139.1709  140.1386  165.1841 O.3     1  UNL1       -0.4754
     14 C         138.6357  138.7517  164.9838 C.3     1  UNL1        0.2068
     15 C         139.5774  137.5856  164.9255 C.3     1  UNL1        0.0646
     16 C         140.5967  137.4987  163.8284 C.3     1  UNL1        0.0759
     17 N         141.9555  138.1053  164.0175 N.3     1  UNL1       -0.2726
     18 C         142.4986  138.3125  165.4003 C.3     1  UNL1        0.0721
     19 C         143.8574  138.9190  165.5893 C.3     1  UNL1        0.0174
     20 C         144.6731  139.3184  164.3956 C.3     1  UNL1        0.0029
     21 C         144.1301  139.1112  163.0127 C.3     1  UNL1        0.0174
     22 C         142.7713  138.5047  162.8237 C.3     1  UNL1        0.0721
@<TRIPOS>BOND
     1     7     8    1
     2     8     9    2
     3     8    10    2
     4     8     1    1
     5     1     2   ar
     6     2     3   ar
     7     3     4   ar
     8     4    13    1
     9    13    14    1
    10    14    15    1
    11    15    16    1
    12    16    17    1
    13    17    18    1
    14    18    19    1
    15    19    20    1
    16    20    21    1
    17    21    22    1
    18     4     5   ar
    19     5     6   ar
    20     6     1   ar
    21    22    17    1
    22     7    11    1
    23     7    12    1
@<TRIPOS>MOLECULE
*****
 22 23 0 0 0
SMALL
GASTEIGER

@<TRIPOS>ATOM
      1 C         142.6055  140.7908  168.9499 C.ar    1  UNL1        0.1219
      2 C         142.9149  142.0830  168.2540 C.ar    1  UNL1        0.0230
      3 C         143.1002  142.1076  166.7657 C.ar    1  UNL1        0.0383
      4 C         142.9761  140.8401  165.9733 C.ar    1  UNL1        0.1386
      5 C         142.6667  139.5479  166.6693 C.ar    1  UNL1        0.0383
      6 C         142.4813  139.5232  168.1576 C.ar    1  UNL1        0.0230
      7 N         142.2348  140.7415  171.9265 N.3     1  UNL1       -0.2035
      8 S         142.4202  140.7661  170.4382 S.O2    1  UNL1        0.0572
      9 O         143.3621  139.6029  170.5362 O.2     1  UNL1       -0.1532
     10 O         141.4782  141.9293  170.3402 O.2     1  UNL1       -0.1532
     11 H         141.8459  139.8408  172.2059 H       1  UNL1        0.1442
     12 H         141.5964  141.4877  172.2021 H       1  UNL1        0.1442
     13 O         143.1614  140.8648  164.4850 O.3     1  UNL1       -0.4754
     14 C         143.3567  139.5822  163.7322 C.3     1  UNL1        0.2068
     15 C         142.4227  139.2178  162.6164 C.3     1  UNL1        0.0646
     16 C         141.0029  139.7013  162.6387 C.3     1  UNL1        0.0759
     17 N         140.1102  139.3536  163.7929 N.3     1  UNL1       -0.2726
     18 C         139.7789  137.9189  164.0792 C.3     1  UNL1        0.0721
     19 C         138.8863  137.5712  165.2334 C.3     1  UNL1        0.0174
     20 C         138.3249  138.6581  166.1014 C.3     1  UNL1        0.0029
     21 C         138.6562  140.0929  165.8151 C.3     1  UNL1        0.0174
     22 C         139.5489  140.4406  164.6609 C.3     1  UNL1        0.0721
@<TRIPOS>BOND
     1     7     8    1
     2     8     9    2
     3     8    10    2
     4     8     1    1
     5     1     2   ar
     6     2     3   ar
     7     3     4   ar
     8     4    13    1
     9    13    14    1
    10    14    15    1
    11    15    16    1
    12    16    17    1
    13    17    18    1
    14    18    19    1
    15    19    20    1
    16    20    21    1
    17    21    22    1
    18     4     5   ar
    19     5     6   ar
    20     6     1   ar
    21    22    17    1
    22     7    11    1
    23     7    12    1
@<TRIPOS>MOLECULE
*****
 22 23 0 0 0
SMALL
GASTEIGER

@<TRIPOS>ATOM
      1 C         140.8515  141.5063  169.6593 C.ar    1  UNL1        0.1219
      2 C         141.4364  140.2892  170.3124 C.ar    1  UNL1        0.0230
      3 C         142.2740  139.3373  169.5110 C.ar    1  UNL1        0.0383
      4 C         142.5266  139.6025  168.0564 C.ar    1  UNL1        0.1386
      5 C         141.9417  140.8196  167.4033 C.ar    1  UNL1        0.0383
      6 C         141.1041  141.7714  168.2048 C.ar    1  UNL1        0.0230
      7 N         139.1763  143.4101  171.2623 N.3     1  UNL1       -0.2035
      8 S         140.0139  142.4582  170.4608 S.O2    1  UNL1        0.0572
      9 O         141.1366  143.4528  170.4528 O.2     1  UNL1       -0.1532
     10 O         138.8911  141.4635  170.4688 O.2     1  UNL1       -0.1532
     11 H         139.6397  143.6066  172.1494 H       1  UNL1        0.1442
     12 H         138.2632  142.9920  171.4409 H       1  UNL1        0.1442
     13 O         143.3642  138.6506  167.2549 O.3     1  UNL1       -0.4754
     14 C         143.7624  139.0006  165.8518 C.3     1  UNL1        0.2068
     15 C         143.0386  138.3849  164.6911 C.3     1  UNL1        0.0646
     16 C         141.6224  137.9176  164.8528 C.3     1  UNL1        0.0759
     17 N         140.5005  138.9132  164.8614 N.3     1  UNL1       -0.2726
     18 C         139.2916  138.6735  165.7164 C.3     1  UNL1        0.0721
     19 C         138.1697  139.6691  165.7250 C.3     1  UNL1        0.0174
     20 C         138.2567  140.9045  164.8787 C.3     1  UNL1        0.0029
     21 C         139.4657  141.1442  164.0236 C.3     1  UNL1        0.0174
     22 C         140.5876  140.1486  164.0150 C.3     1  UNL1        0.0721
@<TRIPOS>BOND
     1     7     8    1
     2     8     9    2
     3     8    10    2
     4     8     1    1
     5     1     2   ar
     6     2     3   ar
     7     3     4   ar
     8     4    13    1
     9    13    14    1
    10    14    15    1
    11    15    16    1
    12    16    17    1
    13    17    18    1
    14    18    19    1
    15    19    20    1
    16    20    21    1
    17    21    22    1
    18     4     5   ar
    19     5     6   ar
    20     6     1   ar
    21    22    17    1
    22     7    11    1
    23     7    12    1
@<TRIPOS>MOLECULE
*****
 22 23 0 0 0
SMALL
GASTEIGER

@<TRIPOS>ATOM
      1 C         140.4210  140.7223  169.1006 C.ar    1  UNL1        0.1219
      2 C         140.1737  142.2003  169.0356 C.ar    1  UNL1        0.0230
      3 C         140.5411  142.9686  167.8008 C.ar    1  UNL1        0.0383
      4 C         141.1558  142.2589  166.6310 C.ar    1  UNL1        0.1386
      5 C         141.4031  140.7809  166.6960 C.ar    1  UNL1        0.0383
      6 C         141.0357  140.0126  167.9308 C.ar    1  UNL1        0.0230
      7 N         139.6862  139.1857  171.5702 N.3     1  UNL1       -0.2035
      8 S         140.0536  139.9540  170.3354 S.O2    1  UNL1        0.0572
      9 O         141.3174  139.1552  170.2144 O.2     1  UNL1       -0.1532
     10 O         138.7898  140.7528  170.4564 O.2     1  UNL1       -0.1532
     11 H         139.5992  138.1956  171.3412 H       1  UNL1        0.1442
     12 H         138.7974  139.5302  171.9331 H       1  UNL1        0.1442
     13 O         141.5232  143.0272  165.3962 O.3     1  UNL1       -0.4754
     14 C         140.5772  143.0746  164.2331 C.3     1  UNL1        0.2068
     15 C         139.1049  142.8932  164.4559 C.3     1  UNL1        0.0646
     16 C         138.3787  141.7640  163.7868 C.3     1  UNL1        0.0759
     17 N         138.5904  140.3545  164.2543 N.3     1  UNL1       -0.2726
     18 C         139.3346  139.3812  163.3890 C.3     1  UNL1        0.0721
     19 C         139.5463  137.9717  163.8565 C.3     1  UNL1        0.0174
     20 C         139.0139  137.5356  165.1892 C.3     1  UNL1        0.0029
     21 C         138.2696  138.5089  166.0545 C.3     1  UNL1        0.0174
     22 C         138.0579  139.9184  165.5871 C.3     1  UNL1        0.0721
@<TRIPOS>BOND
     1     7     8    1
     2     8     9    2
     3     8    10    2
     4     8     1    1
     5     1     2   ar
     6     2     3   ar
     7     3     4   ar
     8     4    13    1
     9    13    14    1
    10    14    15    1
    11    15    16    1
    12    16    17    1
    13    17    18    1
    14    18    19    1
    15    19    20    1
    16    20    21    1
    17    21    22    1
    18     4     5   ar
    19     5     6   ar
    20     6     1   ar
    21    22    17    1
    22     7    11    1
    23     7    12    1
