@<TRIPOS>MOLECULE
*****
 32 34 0 0 0
SMALL
GASTEIGER

@<TRIPOS>ATOM
      1 C         140.5409  140.1433  166.7375 C.ar    1  UNL1        0.0503
      2 C         140.9409  140.0886  165.2929 C.ar    1  UNL1        0.0166
      3 C         139.9982  139.5187  164.2748 C.ar    1  UNL1        0.0505
      4 C         138.6555  139.0036  164.7013 C.ar    1  UNL1        0.0170
      5 C         138.2555  139.0584  166.1459 C.ar    1  UNL1        0.0307
      6 C         139.1982  139.6283  167.1640 C.ar    1  UNL1        0.1401
      7 F         138.7982  139.6831  168.6087 F       1  UNL1       -0.2044
      8 C         142.2291  139.4673  167.3790 C.3     1  UNL1        0.0581
      9 C         141.4836  140.7132  167.7557 C.3     1  UNL1        0.1956
     10 C         140.4107  141.7612  167.7788 C.3     1  UNL1        0.0597
     11 C         140.5393  142.9463  168.6892 C.3     1  UNL1        0.0837
     12 C         141.7410  143.0835  169.5765 C.3     1  UNL1        0.3553
     13 F         142.6837  143.6533  170.5946 F       1  UNL1       -0.1914
     14 F         140.9954  144.3294  169.9532 F       1  UNL1       -0.1914
     15 C         142.8139  142.0355  169.5534 C.2     1  UNL1        0.3504
     16 N         144.0155  142.1727  170.4407 N.pl3   1  UNL1       -0.2456
     17 N         142.6852  140.8504  168.6430 N.2     1  UNL1       -0.0692
     18 H         144.1000  142.9505  171.0383 H       1  UNL1        0.2883
     19 H         144.7197  141.4848  170.4256 H       1  UNL1        0.2883
     20 N         140.3981  139.4639  162.8301 N.am    1  UNL1       -0.2791
     21 C         140.9535  138.1955  162.2532 C.2     1  UNL1        0.2688
     22 O         141.1089  136.9819  163.1211 O.2     1  UNL1       -0.2681
     23 H         140.2961  140.2604  162.2605 H       1  UNL1        0.1552
     24 C         141.3535  138.1406  160.8086 C.ar    1  UNL1        0.1541
     25 C         142.7450  137.7272  160.4308 C.ar    1  UNL1        0.1258
     26 N         143.1449  137.6724  158.9861 N.ar    1  UNL1       -0.2070
     27 C         142.1534  138.0309  157.9193 C.ar    1  UNL1        0.2469
     28 C         140.7618  138.4443  158.2971 C.ar    1  UNL1        0.1566
     29 N         140.3619  138.4992  159.7417 N.ar    1  UNL1       -0.2328
     30 O         142.5533  137.9761  156.4747 O.3     1  UNL1       -0.4265
     31 C         143.3009  136.7870  155.9480 C.3     1  UNL1        0.4044
     32 F         144.7160  136.9402  155.4747 F       1  UNL1       -0.1809
@<TRIPOS>BOND
     1     9     8    1
     2     9     1    1
     3     1     2   ar
     4     2     3   ar
     5     3    20    1
     6    20    21   am
     7    21    22    2
     8    21    24    1
     9    24    25   ar
    10    25    26   ar
    11    26    27   ar
    12    27    30    1
    13    30    31    1
    14    31    32    1
    15    27    28   ar
    16    28    29   ar
    17     3     4   ar
    18     4     5   ar
    19     5     6   ar
    20     6     7    1
    21     9    10    1
    22    10    11    1
    23    11    12    1
    24    12    13    1
    25    12    14    1
    26    12    15    1
    27    15    16    1
    28    15    17    2
    29    17     9    1
    30     6     1   ar
    31    29    24   ar
    32    20    23    1
    33    16    18    1
    34    16    19    1
@<TRIPOS>MOLECULE
*****
 32 34 0 0 0
SMALL
GASTEIGER

@<TRIPOS>ATOM
      1 C         139.3939  139.1926  165.2550 C.ar    1  UNL1        0.0503
      2 C         139.7698  140.2722  164.2839 C.ar    1  UNL1        0.0166
      3 C         139.7023  140.0105  162.8085 C.ar    1  UNL1        0.0505
      4 C         139.2590  138.6691  162.3042 C.ar    1  UNL1        0.0170
      5 C         138.8831  137.5896  163.2753 C.ar    1  UNL1        0.0307
      6 C         138.9505  137.8513  164.7508 C.ar    1  UNL1        0.1401
      7 F         138.5746  136.7717  165.7220 F       1  UNL1       -0.2044
      8 C         137.9766  139.3320  166.5552 C.3     1  UNL1        0.0581
      9 C         139.4613  139.4544  166.7305 C.3     1  UNL1        0.1956
     10 C         140.9225  139.4858  166.3934 C.3     1  UNL1        0.0597
     11 C         141.9356  139.7364  167.4708 C.3     1  UNL1        0.0837
     12 C         141.4874  139.9556  168.8854 C.3     1  UNL1        0.3553
     13 F         141.5547  140.2173  170.3609 F       1  UNL1       -0.1914
     14 F         142.9721  140.0780  169.0607 F       1  UNL1       -0.1914
     15 C         140.0261  139.9242  169.2226 C.2     1  UNL1        0.3504
     16 N         139.5779  140.1435  170.6372 N.pl3   1  UNL1       -0.2456
     17 N         139.0131  139.6736  168.1451 N.2     1  UNL1       -0.0692
     18 H         140.2428  140.3080  171.3444 H       1  UNL1        0.2883
     19 H         138.6188  140.1228  170.8584 H       1  UNL1        0.2883
     20 N         140.0782  141.0901  161.8372 N.am    1  UNL1       -0.2791
     21 C         139.0255  142.0105  161.2945 C.2     1  UNL1        0.2688
     22 O         137.5968  141.8513  161.7231 O.2     1  UNL1       -0.2681
     23 H         141.0159  141.1946  161.5560 H       1  UNL1        0.1552
     24 C         139.4013  143.0900  160.3234 C.ar    1  UNL1        0.1541
     25 C         139.3993  142.8076  158.8502 C.ar    1  UNL1        0.1258
     26 N         139.7752  143.8872  157.8790 N.ar    1  UNL1       -0.2070
     27 C         140.1530  145.2493  158.3810 C.ar    1  UNL1        0.2469
     28 C         140.1550  145.5317  159.8542 C.ar    1  UNL1        0.1566
     29 N         139.7792  144.4522  160.8253 N.ar    1  UNL1       -0.2328
     30 O         140.5288  146.3288  157.4098 O.3     1  UNL1       -0.4265
     31 C         139.4737  146.9760  156.5626 C.3     1  UNL1        0.4044
     32 F         138.6558  148.1052  157.1159 F       1  UNL1       -0.1809
@<TRIPOS>BOND
     1     9     8    1
     2     9     1    1
     3     1     2   ar
     4     2     3   ar
     5     3    20    1
     6    20    21   am
     7    21    22    2
     8    21    24    1
     9    24    25   ar
    10    25    26   ar
    11    26    27   ar
    12    27    30    1
    13    30    31    1
    14    31    32    1
    15    27    28   ar
    16    28    29   ar
    17     3     4   ar
    18     4     5   ar
    19     5     6   ar
    20     6     7    1
    21     9    10    1
    22    10    11    1
    23    11    12    1
    24    12    13    1
    25    12    14    1
    26    12    15    1
    27    15    16    1
    28    15    17    2
    29    17     9    1
    30     6     1   ar
    31    29    24   ar
    32    20    23    1
    33    16    18    1
    34    16    19    1
@<TRIPOS>MOLECULE
*****
 32 34 0 0 0
SMALL
GASTEIGER

@<TRIPOS>ATOM
      1 C         140.3615  140.4830  167.0849 C.ar    1  UNL1        0.0503
      2 C         140.3797  140.6903  165.5994 C.ar    1  UNL1        0.0166
      3 C         139.2976  140.0978  164.7463 C.ar    1  UNL1        0.0505
      4 C         138.1973  139.2981  165.3786 C.ar    1  UNL1        0.0170
      5 C         138.1791  139.0909  166.8641 C.ar    1  UNL1        0.0307
      6 C         139.2612  139.6833  167.7172 C.ar    1  UNL1        0.1401
      7 F         139.2431  139.4761  169.2028 F       1  UNL1       -0.2044
      8 C         142.1796  139.9025  167.3614 C.3     1  UNL1        0.0581
      9 C         141.4437  141.0755  167.9382 C.3     1  UNL1        0.1956
     10 C         140.3321  142.0427  168.2185 C.3     1  UNL1        0.0597
     11 C         140.5581  143.1950  169.1519 C.3     1  UNL1        0.0837
     12 C         141.8958  143.3801  169.8048 C.3     1  UNL1        0.3553
     13 F         142.9780  143.9725  170.6580 F       1  UNL1       -0.1914
     14 F         141.1600  144.5531  170.3815 F       1  UNL1       -0.1914
     15 C         143.0075  142.4129  169.5244 C.2     1  UNL1        0.3504
     16 N         144.3452  142.5979  170.1773 N.pl3   1  UNL1       -0.2456
     17 N         142.7814  141.2606  168.5911 N.2     1  UNL1       -0.0692
     18 H         144.4936  143.3542  170.7899 H       1  UNL1        0.2883
     19 H         145.0748  141.9631  169.9933 H       1  UNL1        0.2883
     20 N         139.3157  140.3050  163.2607 N.am    1  UNL1       -0.2791
     21 C         138.2716  141.1634  162.6104 C.2     1  UNL1        0.2688
     22 O         137.2093  141.8147  163.4457 O.2     1  UNL1       -0.2681
     23 H         140.0129  139.8776  162.7126 H       1  UNL1        0.1552
     24 C         138.2897  141.3707  161.1250 C.ar    1  UNL1        0.1541
     25 C         138.5308  142.7398  160.5616 C.ar    1  UNL1        0.1258
     26 N         138.5489  142.9470  159.0760 N.ar    1  UNL1       -0.2070
     27 C         138.3259  141.7851  158.1539 C.ar    1  UNL1        0.2469
     28 C         138.0847  140.4160  158.7173 C.ar    1  UNL1        0.1566
     29 N         138.0666  140.2088  160.2028 N.ar    1  UNL1       -0.2328
     30 O         138.3439  141.9923  156.6684 O.3     1  UNL1       -0.4265
     31 C         137.1604  141.5881  155.8403 C.3     1  UNL1        0.4044
     32 F         135.8206  141.4001  156.4883 F       1  UNL1       -0.1809
@<TRIPOS>BOND
     1     9     8    1
     2     9     1    1
     3     1     2   ar
     4     2     3   ar
     5     3    20    1
     6    20    21   am
     7    21    22    2
     8    21    24    1
     9    24    25   ar
    10    25    26   ar
    11    26    27   ar
    12    27    30    1
    13    30    31    1
    14    31    32    1
    15    27    28   ar
    16    28    29   ar
    17     3     4   ar
    18     4     5   ar
    19     5     6   ar
    20     6     7    1
    21     9    10    1
    22    10    11    1
    23    11    12    1
    24    12    13    1
    25    12    14    1
    26    12    15    1
    27    15    16    1
    28    15    17    2
    29    17     9    1
    30     6     1   ar
    31    29    24   ar
    32    20    23    1
    33    16    18    1
    34    16    19    1
@<TRIPOS>MOLECULE
*****
 32 34 0 0 0
SMALL
GASTEIGER

@<TRIPOS>ATOM
      1 C         140.3923  140.7955  166.3628 C.ar    1  UNL1        0.0503
      2 C         140.5773  141.3245  164.9715 C.ar    1  UNL1        0.0166
      3 C         139.5832  140.9836  163.9012 C.ar    1  UNL1        0.0505
      4 C         138.4041  140.1137  164.2223 C.ar    1  UNL1        0.0170
      5 C         138.2191  139.5848  165.6137 C.ar    1  UNL1        0.0307
      6 C         139.2132  139.9257  166.6840 C.ar    1  UNL1        0.1401
      7 F         139.0282  139.3968  168.0754 F       1  UNL1       -0.2044
      8 C         142.0585  139.9416  166.8244 C.3     1  UNL1        0.0581
      9 C         141.3864  141.1364  167.4332 C.3     1  UNL1        0.1956
     10 C         140.3691  142.2129  167.6702 C.3     1  UNL1        0.0597
     11 C         140.5792  143.2153  168.7662 C.3     1  UNL1        0.0837
     12 C         141.8068  143.1412  169.6251 C.3     1  UNL1        0.3553
     13 F         142.8009  143.4820  170.6953 F       1  UNL1       -0.1914
     14 F         141.1347  144.3360  170.2338 F       1  UNL1       -0.1914
     15 C         142.8241  142.0647  169.3880 C.2     1  UNL1        0.3504
     16 N         144.0517  141.9906  170.2469 N.pl3   1  UNL1       -0.2456
     17 N         142.6140  141.0623  168.2921 N.2     1  UNL1       -0.0692
     18 H         144.1896  142.6485  170.9662 H       1  UNL1        0.2883
     19 H         144.7194  141.2841  170.0913 H       1  UNL1        0.2883
     20 N         139.7681  141.5125  162.5098 N.am    1  UNL1       -0.2791
     21 C         139.4309  142.9408  162.1994 C.2     1  UNL1        0.2688
     22 O         138.9087  143.8401  163.2804 O.2     1  UNL1       -0.2681
     23 H         140.1108  140.9223  161.8003 H       1  UNL1        0.1552
     24 C         139.6158  143.4697  160.8080 C.ar    1  UNL1        0.1541
     25 C         139.1447  142.6670  159.6317 C.ar    1  UNL1        0.1258
     26 N         139.3297  143.1961  158.2402 N.ar    1  UNL1       -0.2070
     27 C         139.9857  144.5277  158.0252 C.ar    1  UNL1        0.2469
     28 C         140.4568  145.3304  159.2015 C.ar    1  UNL1        0.1566
     29 N         140.2719  144.8014  160.5929 N.ar    1  UNL1       -0.2328
     30 O         140.1707  145.0567  156.6338 O.3     1  UNL1       -0.4265
     31 C         139.2994  146.1702  156.1328 C.3     1  UNL1        0.4044
     32 F         139.2497  147.4743  156.8723 F       1  UNL1       -0.1809
@<TRIPOS>BOND
     1     9     8    1
     2     9     1    1
     3     1     2   ar
     4     2     3   ar
     5     3    20    1
     6    20    21   am
     7    21    22    2
     8    21    24    1
     9    24    25   ar
    10    25    26   ar
    11    26    27   ar
    12    27    30    1
    13    30    31    1
    14    31    32    1
    15    27    28   ar
    16    28    29   ar
    17     3     4   ar
    18     4     5   ar
    19     5     6   ar
    20     6     7    1
    21     9    10    1
    22    10    11    1
    23    11    12    1
    24    12    13    1
    25    12    14    1
    26    12    15    1
    27    15    16    1
    28    15    17    2
    29    17     9    1
    30     6     1   ar
    31    29    24   ar
    32    20    23    1
    33    16    18    1
    34    16    19    1
@<TRIPOS>MOLECULE
*****
 32 34 0 0 0
SMALL
GASTEIGER

@<TRIPOS>ATOM
      1 C         140.2605  140.2062  166.5648 C.ar    1  UNL1        0.0503
      2 C         140.7785  140.9001  165.3400 C.ar    1  UNL1        0.0166
      3 C         139.9163  141.0066  164.1172 C.ar    1  UNL1        0.0505
      4 C         138.5361  140.4194  164.1193 C.ar    1  UNL1        0.0170
      5 C         138.0180  139.7255  165.3441 C.ar    1  UNL1        0.0307
      6 C         138.8803  139.6189  166.5668 C.ar    1  UNL1        0.1401
      7 F         138.3622  138.9250  167.7917 F       1  UNL1       -0.2044
      8 C         141.8843  139.2067  166.8533 C.3     1  UNL1        0.0581
      9 C         141.1227  140.0996  167.7876 C.3     1  UNL1        0.1956
     10 C         140.0618  141.0294  168.2973 C.3     1  UNL1        0.0597
     11 C         140.1276  141.5426  169.7052 C.3     1  UNL1        0.0837
     12 C         141.2543  141.1259  170.6035 C.3     1  UNL1        0.3553
     13 F         142.1165  141.0192  171.8263 F       1  UNL1       -0.1914
     14 F         140.4928  142.0187  171.5379 F       1  UNL1       -0.1914
     15 C         142.3152  140.1960  170.0939 C.2     1  UNL1        0.3504
     16 N         143.4419  139.7793  170.9922 N.pl3   1  UNL1       -0.2456
     17 N         142.2495  139.6829  168.6859 N.2     1  UNL1       -0.0692
     18 H         143.4850  140.1161  171.9163 H       1  UNL1        0.2883
     19 H         144.1382  139.1690  170.6577 H       1  UNL1        0.2883
     20 N         140.4343  141.7005  162.8924 N.am    1  UNL1       -0.2791
     21 C         140.1206  143.1491  162.6619 C.2     1  UNL1        0.2688
     22 O         139.2888  143.9038  163.6562 O.2     1  UNL1       -0.2681
     23 H         140.9802  141.2052  162.2398 H       1  UNL1        0.1552
     24 C         140.6386  143.8430  161.4371 C.ar    1  UNL1        0.1541
     25 C         142.0769  143.6896  161.0398 C.ar    1  UNL1        0.1258
     26 N         142.5948  144.3835  159.8150 N.ar    1  UNL1       -0.2070
     27 C         141.6745  145.2309  158.9874 C.ar    1  UNL1        0.2469
     28 C         140.2362  145.3843  159.3846 C.ar    1  UNL1        0.1566
     29 N         139.7182  144.6904  160.6094 N.ar    1  UNL1       -0.2328
     30 O         142.1925  145.9248  157.7626 O.3     1  UNL1       -0.4265
     31 C         141.3041  146.0979  156.5664 C.3     1  UNL1        0.4044
     32 F         141.0894  144.9542  155.6198 F       1  UNL1       -0.1809
@<TRIPOS>BOND
     1     9     8    1
     2     9     1    1
     3     1     2   ar
     4     2     3   ar
     5     3    20    1
     6    20    21   am
     7    21    22    2
     8    21    24    1
     9    24    25   ar
    10    25    26   ar
    11    26    27   ar
    12    27    30    1
    13    30    31    1
    14    31    32    1
    15    27    28   ar
    16    28    29   ar
    17     3     4   ar
    18     4     5   ar
    19     5     6   ar
    20     6     7    1
    21     9    10    1
    22    10    11    1
    23    11    12    1
    24    12    13    1
    25    12    14    1
    26    12    15    1
    27    15    16    1
    28    15    17    2
    29    17     9    1
    30     6     1   ar
    31    29    24   ar
    32    20    23    1
    33    16    18    1
    34    16    19    1
@<TRIPOS>MOLECULE
*****
 32 34 0 0 0
SMALL
GASTEIGER

@<TRIPOS>ATOM
      1 C         142.4102  140.9057  166.2139 C.ar    1  UNL1        0.0503
      2 C         142.2351  141.8695  165.0779 C.ar    1  UNL1        0.0166
      3 C         142.9344  141.6262  163.7734 C.ar    1  UNL1        0.0505
      4 C         143.8089  140.4192  163.6049 C.ar    1  UNL1        0.0170
      5 C         143.9840  139.4554  164.7408 C.ar    1  UNL1        0.0307
      6 C         143.2847  139.6987  166.0453 C.ar    1  UNL1        0.1401
      7 F         143.4598  138.7349  167.1814 F       1  UNL1       -0.2044
      8 C         142.9192  142.0181  167.7046 C.3     1  UNL1        0.0581
      9 C         141.7109  141.1490  167.5184 C.3     1  UNL1        0.1956
     10 C         140.7455  140.1954  166.8792 C.3     1  UNL1        0.0597
     11 C         139.5004  139.7868  167.6092 C.3     1  UNL1        0.0837
     12 C         139.2207  140.3319  168.9784 C.3     1  UNL1        0.3553
     13 F         138.5215  140.5752  170.2829 F       1  UNL1       -0.1914
     14 F         138.0124  139.4628  168.7922 F       1  UNL1       -0.1914
     15 C         140.1861  141.2855  169.6176 C.2     1  UNL1        0.3504
     16 N         139.9065  141.8306  170.9868 N.pl3   1  UNL1       -0.2456
     17 N         141.4312  141.6941  168.8876 N.2     1  UNL1       -0.0692
     18 H         139.0893  141.5625  171.4659 H       1  UNL1        0.2883
     19 H         140.5401  142.4565  171.4063 H       1  UNL1        0.2883
     20 N         142.7594  142.5901  162.6374 N.am    1  UNL1       -0.2791
     21 C         141.5671  142.4762  161.7343 C.2     1  UNL1        0.2688
     22 O         140.5500  141.3986  161.9672 O.2     1  UNL1       -0.2681
     23 H         143.4269  143.2973  162.4845 H       1  UNL1        0.1552
     24 C         141.3920  143.4400  160.5983 C.ar    1  UNL1        0.1541
     25 C         140.2205  144.3767  160.5833 C.ar    1  UNL1        0.1258
     26 N         140.0455  145.3405  159.4472 N.ar    1  UNL1       -0.2070
     27 C         141.0418  145.3674  158.3263 C.ar    1  UNL1        0.2469
     28 C         142.2132  144.4307  158.3413 C.ar    1  UNL1        0.1566
     29 N         142.3884  143.4670  159.4773 N.ar    1  UNL1       -0.2328
     30 O         140.8667  146.3312  157.1903 O.3     1  UNL1       -0.4265
     31 C         139.4930  146.6369  156.6711 C.3     1  UNL1        0.4044
     32 F         138.9171  148.0120  156.8378 F       1  UNL1       -0.1809
@<TRIPOS>BOND
     1     9     8    1
     2     9     1    1
     3     1     2   ar
     4     2     3   ar
     5     3    20    1
     6    20    21   am
     7    21    22    2
     8    21    24    1
     9    24    25   ar
    10    25    26   ar
    11    26    27   ar
    12    27    30    1
    13    30    31    1
    14    31    32    1
    15    27    28   ar
    16    28    29   ar
    17     3     4   ar
    18     4     5   ar
    19     5     6   ar
    20     6     7    1
    21     9    10    1
    22    10    11    1
    23    11    12    1
    24    12    13    1
    25    12    14    1
    26    12    15    1
    27    15    16    1
    28    15    17    2
    29    17     9    1
    30     6     1   ar
    31    29    24   ar
    32    20    23    1
    33    16    18    1
    34    16    19    1
@<TRIPOS>MOLECULE
*****
 32 34 0 0 0
SMALL
GASTEIGER

@<TRIPOS>ATOM
      1 C         141.9324  140.3888  166.4546 C.ar    1  UNL1        0.0503
      2 C         141.4354  140.6010  165.0554 C.ar    1  UNL1        0.0166
      3 C         141.7881  139.6195  163.9774 C.ar    1  UNL1        0.0505
      4 C         142.6379  138.4259  164.2986 C.ar    1  UNL1        0.0170
      5 C         143.1349  138.2138  165.6978 C.ar    1  UNL1        0.0307
      6 C         142.7822  139.1952  166.7758 C.ar    1  UNL1        0.1401
      7 F         143.2792  138.9831  168.1752 F       1  UNL1       -0.2044
      8 C         142.7641  142.0633  166.9271 C.3     1  UNL1        0.0581
      9 C         141.5796  141.3703  167.5328 C.3     1  UNL1        0.1956
     10 C         140.5176  140.3366  167.7640 C.3     1  UNL1        0.0597
     11 C         139.5143  140.5249  168.8630 C.3     1  UNL1        0.0837
     12 C         139.5729  141.7470  169.7308 C.3     1  UNL1        0.3553
     13 F         139.2202  142.7285  170.8088 F       1  UNL1       -0.1914
     14 F         138.3884  141.0541  170.3364 F       1  UNL1       -0.1914
     15 C         140.6348  142.7808  169.4995 C.2     1  UNL1        0.3504
     16 N         140.6935  144.0030  170.3673 N.pl3   1  UNL1       -0.2456
     17 N         141.6382  142.5925  168.4005 N.2     1  UNL1       -0.0692
     18 H         140.0349  144.1266  171.0886 H       1  UNL1        0.2883
     19 H         141.3905  144.6815  170.2155 H       1  UNL1        0.2883
     20 N         141.2911  139.8316  162.5780 N.am    1  UNL1       -0.2791
     21 C         140.1597  139.0004  162.0499 C.2     1  UNL1        0.2688
     22 O         139.5252  137.9571  162.9212 O.2     1  UNL1       -0.2681
     23 H         141.7075  140.5164  162.0062 H       1  UNL1        0.1552
     24 C         139.6626  139.2125  160.6507 C.ar    1  UNL1        0.1541
     25 C         138.3240  139.8481  160.4185 C.ar    1  UNL1        0.1258
     26 N         137.8270  140.0601  159.0192 N.ar    1  UNL1       -0.2070
     27 C         138.6686  139.6366  157.8521 C.ar    1  UNL1        0.2469
     28 C         140.0073  139.0010  158.0843 C.ar    1  UNL1        0.1566
     29 N         140.5043  138.7889  159.4835 N.ar    1  UNL1       -0.2328
     30 O         138.1716  139.8486  156.4528 O.3     1  UNL1       -0.4265
     31 C         137.5898  141.1731  156.0562 C.3     1  UNL1        0.4044
     32 F         136.2375  141.5800  156.5622 F       1  UNL1       -0.1809
@<TRIPOS>BOND
     1     9     8    1
     2     9     1    1
     3     1     2   ar
     4     2     3   ar
     5     3    20    1
     6    20    21   am
     7    21    22    2
     8    21    24    1
     9    24    25   ar
    10    25    26   ar
    11    26    27   ar
    12    27    30    1
    13    30    31    1
    14    31    32    1
    15    27    28   ar
    16    28    29   ar
    17     3     4   ar
    18     4     5   ar
    19     5     6   ar
    20     6     7    1
    21     9    10    1
    22    10    11    1
    23    11    12    1
    24    12    13    1
    25    12    14    1
    26    12    15    1
    27    15    16    1
    28    15    17    2
    29    17     9    1
    30     6     1   ar
    31    29    24   ar
    32    20    23    1
    33    16    18    1
    34    16    19    1
@<TRIPOS>MOLECULE
*****
 32 34 0 0 0
SMALL
GASTEIGER

@<TRIPOS>ATOM
      1 C         142.2018  140.1690  166.0981 C.ar    1  UNL1        0.0503
      2 C         141.9242  141.2024  165.0470 C.ar    1  UNL1        0.0166
      3 C         142.7597  141.2492  163.8021 C.ar    1  UNL1        0.0505
      4 C         143.8729  140.2625  163.6085 C.ar    1  UNL1        0.0170
      5 C         144.1505  139.2292  164.6596 C.ar    1  UNL1        0.0307
      6 C         143.3150  139.1824  165.9045 C.ar    1  UNL1        0.1401
      7 F         143.5926  138.1490  166.9557 F       1  UNL1       -0.2044
      8 C         140.4527  139.4111  166.3892 C.3     1  UNL1        0.0581
      9 C         141.3663  140.1222  167.3431 C.3     1  UNL1        0.1956
     10 C         142.5700  140.8495  167.8645 C.3     1  UNL1        0.0597
     11 C         142.6210  141.2831  169.2995 C.3     1  UNL1        0.0837
     12 C         141.4681  140.9893  170.2132 C.3     1  UNL1        0.3553
     13 F         140.6326  140.9425  171.4580 F       1  UNL1       -0.1914
     14 F         142.3817  141.7004  171.1670 F       1  UNL1       -0.1914
     15 C         140.2644  140.2620  169.6917 C.2     1  UNL1        0.3504
     16 N         139.1115  139.9682  170.6054 N.pl3   1  UNL1       -0.2456
     17 N         140.2134  139.8284  168.2567 N.2     1  UNL1       -0.0692
     18 H         139.1449  140.2527  171.5472 H       1  UNL1        0.2883
     19 H         138.3214  139.4908  170.2631 H       1  UNL1        0.2883
     20 N         142.4822  142.2826  162.7509 N.am    1  UNL1       -0.2791
     21 C         141.3884  142.0584  161.7491 C.2     1  UNL1        0.2688
     22 O         140.5723  140.8007  161.7986 O.2     1  UNL1       -0.2681
     23 H         143.0178  143.1080  162.7184 H       1  UNL1        0.1552
     24 C         141.1108  143.0917  160.6979 C.ar    1  UNL1        0.1541
     25 C         141.8062  144.4197  160.7495 C.ar    1  UNL1        0.1258
     26 N         141.5286  145.4531  159.6982 N.ar    1  UNL1       -0.2070
     27 C         140.5556  145.1584  158.5954 C.ar    1  UNL1        0.2469
     28 C         139.8601  143.8303  158.5438 C.ar    1  UNL1        0.1566
     29 N         140.1378  142.7970  159.5950 N.ar    1  UNL1       -0.2328
     30 O         140.2779  146.1917  157.5442 O.3     1  UNL1       -0.4265
     31 C         139.5816  145.8014  156.2742 C.3     1  UNL1        0.4044
     32 F         138.4098  146.6003  155.7854 F       1  UNL1       -0.1809
@<TRIPOS>BOND
     1     9     8    1
     2     9     1    1
     3     1     2   ar
     4     2     3   ar
     5     3    20    1
     6    20    21   am
     7    21    22    2
     8    21    24    1
     9    24    25   ar
    10    25    26   ar
    11    26    27   ar
    12    27    30    1
    13    30    31    1
    14    31    32    1
    15    27    28   ar
    16    28    29   ar
    17     3     4   ar
    18     4     5   ar
    19     5     6   ar
    20     6     7    1
    21     9    10    1
    22    10    11    1
    23    11    12    1
    24    12    13    1
    25    12    14    1
    26    12    15    1
    27    15    16    1
    28    15    17    2
    29    17     9    1
    30     6     1   ar
    31    29    24   ar
    32    20    23    1
    33    16    18    1
    34    16    19    1
@<TRIPOS>MOLECULE
*****
 32 34 0 0 0
SMALL
GASTEIGER

@<TRIPOS>ATOM
      1 C         142.2685  141.6840  165.8092 C.ar    1  UNL1        0.0503
      2 C         141.8028  141.1253  164.4974 C.ar    1  UNL1        0.0166
      3 C         142.6374  141.3102  163.2648 C.ar    1  UNL1        0.0505
      4 C         143.9376  142.0538  163.3440 C.ar    1  UNL1        0.0170
      5 C         144.4033  142.6126  164.6558 C.ar    1  UNL1        0.0307
      6 C         143.5688  142.4277  165.8884 C.ar    1  UNL1        0.1401
      7 F         144.0345  142.9865  167.2003 F       1  UNL1       -0.2044
      8 C         140.7003  142.6387  166.3991 C.3     1  UNL1        0.0581
      9 C         141.4340  141.4991  167.0419 C.3     1  UNL1        0.1956
     10 C         142.4575  140.4238  167.2566 C.3     1  UNL1        0.0597
     11 C         142.3917  139.5594  168.4807 C.3     1  UNL1        0.0837
     12 C         141.3023  139.7703  169.4901 C.3     1  UNL1        0.3553
     13 F         140.4677  139.5855  170.7227 F       1  UNL1       -0.1914
     14 F         142.0360  138.6308  170.1329 F       1  UNL1       -0.1914
     15 C         140.2788  140.8456  169.2754 C.2     1  UNL1        0.3504
     16 N         139.1894  141.0565  170.2848 N.pl3   1  UNL1       -0.2456
     17 N         140.3446  141.7100  168.0513 N.2     1  UNL1       -0.0692
     18 H         139.1462  140.4892  171.0882 H       1  UNL1        0.2883
     19 H         138.5177  141.7623  170.1438 H       1  UNL1        0.2883
     20 N         142.1717  140.7514  161.9530 N.am    1  UNL1       -0.2791
     21 C         142.6495  139.4036  161.4999 C.2     1  UNL1        0.2688
     22 O         143.5930  138.6147  162.3586 O.2     1  UNL1       -0.2681
     23 H         141.5524  141.2692  161.3894 H       1  UNL1        0.1552
     24 C         142.1838  138.8448  160.1881 C.ar    1  UNL1        0.1541
     25 C         140.7437  138.9710  159.7879 C.ar    1  UNL1        0.1258
     26 N         140.2780  138.4121  158.4761 N.ar    1  UNL1       -0.2070
     27 C         141.2525  137.7272  157.5644 C.ar    1  UNL1        0.2469
     28 C         142.6927  137.6011  157.9645 C.ar    1  UNL1        0.1566
     29 N         143.1583  138.1599  159.2763 N.ar    1  UNL1       -0.2328
     30 O         140.7869  137.1684  156.2526 O.3     1  UNL1       -0.4265
     31 C         141.4083  135.9167  155.7076 C.3     1  UNL1        0.4044
     32 F         142.7388  135.9789  155.0176 F       1  UNL1       -0.1809
@<TRIPOS>BOND
     1     9     8    1
     2     9     1    1
     3     1     2   ar
     4     2     3   ar
     5     3    20    1
     6    20    21   am
     7    21    22    2
     8    21    24    1
     9    24    25   ar
    10    25    26   ar
    11    26    27   ar
    12    27    30    1
    13    30    31    1
    14    31    32    1
    15    27    28   ar
    16    28    29   ar
    17     3     4   ar
    18     4     5   ar
    19     5     6   ar
    20     6     7    1
    21     9    10    1
    22    10    11    1
    23    11    12    1
    24    12    13    1
    25    12    14    1
    26    12    15    1
    27    15    16    1
    28    15    17    2
    29    17     9    1
    30     6     1   ar
    31    29    24   ar
    32    20    23    1
    33    16    18    1
    34    16    19    1
