@<TRIPOS>MOLECULE
*****
 62 68 0 0 0
SMALL
GASTEIGER

@<TRIPOS>ATOM
      1 C         141.2516  140.4554  153.6318 C.ar    1  UNL1        0.0000
      2 C         142.4509  139.7318  154.1684 C.ar    1  UNL1        0.0000
      3 C         142.4188  138.2404  154.3257 C.ar    1  UNL1        0.0005
      4 C         141.1873  137.4726  153.9465 C.ar    1  UNL1        0.0059
      5 C         139.9879  138.1963  153.4100 C.ar    1  UNL1        0.0005
      6 C         140.0201  139.6877  153.2526 C.ar    1  UNL1        0.0000
      7 C         141.1550  135.9812  154.1038 C.2     1  UNL1        0.0330
      8 C         140.9688  134.9821  153.0006 C.2     1  UNL1        0.0537
      9 C         141.0021  133.6105  153.6070 C.2     1  UNL1        0.2309
     10 N         140.9076  132.1454  153.3000 N.2     1  UNL1       -0.0364
     11 C         141.0559  131.3912  154.5881 C.2     1  UNL1        0.3653
     12 N         141.2421  132.3904  155.6913 N.2     1  UNL1       -0.0462
     13 C         141.2089  133.7620  155.0850 C.3     1  UNL1        0.3308
     14 S         141.3034  135.2272  155.3920 S.3     1  UNL1       -0.0538
     15 C         141.0237  129.8999  154.7455 C.3     1  UNL1        0.1874
     16 C         139.8247  129.0189  154.5548 C.3     1  UNL1        0.0344
     17 C         140.2448  127.6022  154.8126 C.3     1  UNL1        0.0221
     18 C         139.3615  126.3924  154.7341 C.3     1  UNL1        0.0018
     19 C         141.7034  127.6076  155.1626 C.3     1  UNL1        0.0940
     20 N         142.1848  129.0276  155.1212 N.am    1  UNL1       -0.2691
     21 C         143.5819  129.4937  155.4055 C.2     1  UNL1        0.2440
     22 O         143.9166  130.9536  155.3243 O.2     1  UNL1       -0.2731
     23 C         144.6442  128.4998  155.7709 C.3     1  UNL1        0.1512
     24 N         144.7725  128.0262  157.1884 N.am    1  UNL1       -0.2640
     25 C         144.9113  129.0215  158.3021 C.2     1  UNL1        0.4021
     26 O         144.9218  130.4904  157.9982 O.2     1  UNL1       -0.2264
     27 H         144.7656  127.0621  157.3878 H       1  UNL1        0.1532
     28 O         145.0396  128.5478  159.7195 O.3     1  UNL1       -0.4306
     29 C         144.2139  127.3919  160.2015 C.3     1  UNL1        0.2573
     30 C         145.5784  127.9795  154.7188 C.3     1  UNL1        0.0270
     31 C         146.7833  127.1788  155.1152 C.3     1  UNL1        0.0022
     32 C         145.3076  128.2599  153.2703 C.3     1  UNL1        0.0022
     33 C         141.3483  144.9295  153.1597 C.ar    1  UNL1        0.0172
     34 C         140.8215  144.3201  154.4252 C.ar    1  UNL1        0.0015
     35 C         140.7893  142.8287  154.5825 C.ar    1  UNL1        0.0000
     36 C         141.2838  141.9468  153.4745 C.ar    1  UNL1        0.0000
     37 C         141.8106  142.5562  152.2092 C.ar    1  UNL1        0.0000
     38 C         141.8428  144.0476  152.0518 C.ar    1  UNL1        0.0015
     39 C         140.9511  148.7867  153.3331 C.ar    1  UNL1        0.1353
     40 N         141.9091  148.6451  152.1875 N.ar    1  UNL1       -0.2279
     41 C         142.1745  147.1829  151.9832 C.ar    1  UNL1        0.1171
     42 C         141.3805  146.4209  153.0024 C.ar    1  UNL1        0.0769
     43 N         140.6245  147.4120  153.8367 N.ar    1  UNL1       -0.3394
     44 H         140.0200  147.1979  154.5837 H       1  UNL1        0.1671
     45 C         142.2327  151.7506  152.8619 C.2     1  UNL1        0.2439
     46 O         142.9905  150.6443  152.1897 O.2     1  UNL1       -0.2731
     47 N         141.0032  151.4388  153.6626 N.am    1  UNL1       -0.2730
     48 C         140.1470  152.4346  154.3871 C.3     1  UNL1        0.0938
     49 C         139.0286  151.6877  155.0516 C.3     1  UNL1        0.0220
     50 C         137.9368  152.2921  155.8839 C.3     1  UNL1        0.0018
     51 C         139.1938  150.2303  154.7376 C.3     1  UNL1        0.0293
     52 C         140.4142  150.0765  153.8791 C.3     1  UNL1        0.1319
     53 C         142.7045  153.1687  152.7335 C.3     1  UNL1        0.1512
     54 C         141.2943  155.3467  152.8656 C.2     1  UNL1        0.4021
     55 O         141.6314  155.4767  154.3215 O.2     1  UNL1       -0.2264
     56 N         141.8308  154.1928  152.0717 N.am    1  UNL1       -0.2640
     57 H         141.6095  154.1075  151.1161 H       1  UNL1        0.1532
     58 C         138.9300  156.2943  152.3534 C.3     1  UNL1        0.2573
     59 O         140.4207  156.3707  152.2038 O.3     1  UNL1       -0.4306
     60 C         144.0499  153.5627  153.2669 C.3     1  UNL1        0.0270
     61 C         144.4978  153.0693  154.6108 C.3     1  UNL1        0.0022
     62 C         144.9475  154.4501  152.4565 C.3     1  UNL1        0.0022
@<TRIPOS>BOND
     1    58    59    1
     2    59    54    1
     3    54    55    2
     4    54    56   am
     5    53    56    1
     6    53    45    1
     7    45    46    2
     8    45    47   am
     9    47    48    1
    10    48    49    1
    11    49    50    1
    12    49    51    1
    13    51    52    1
    14    52    39    1
    15    39    40   ar
    16    40    41   ar
    17    41    42   ar
    18    42    33    1
    19    33    34   ar
    20    34    35   ar
    21    35    36   ar
    22    36     1    1
    23     1     2   ar
    24     2     3   ar
    25     3     4   ar
    26     4     7    1
    27     7     8    2
    28     8     9    1
    29     9    10    2
    30    10    11    1
    31    15    11    1
    32    15    16    1
    33    16    17    1
    34    17    18    1
    35    17    19    1
    36    19    20    1
    37    20    21   am
    38    21    22    2
    39    21    23    1
    40    23    24    1
    41    24    25   am
    42    25    26    2
    43    25    28    1
    44    28    29    1
    45    23    30    1
    46    30    31    1
    47    30    32    1
    48    11    12    2
    49    12    13    1
    50    13    14    1
    51     4     5   ar
    52     5     6   ar
    53    36    37   ar
    54    37    38   ar
    55    42    43   ar
    56    53    60    1
    57    60    61    1
    58    60    62    1
    59    52    47    1
    60    43    39   ar
    61    38    33   ar
    62     6     1   ar
    63    14     7    1
    64    13     9    1
    65    20    15    1
    66    56    57    1
    67    24    27    1
    68    43    44    1
@<TRIPOS>MOLECULE
*****
 62 68 0 0 0
SMALL
GASTEIGER

@<TRIPOS>ATOM
      1 C         141.3699  141.2647  154.9791 C.ar    1  UNL1        0.0000
      2 C         142.5384  142.2046  155.0154 C.ar    1  UNL1        0.0000
      3 C         142.3343  143.6659  154.7451 C.ar    1  UNL1        0.0005
      4 C         140.9616  144.1873  154.4385 C.ar    1  UNL1        0.0059
      5 C         139.7932  143.2474  154.4023 C.ar    1  UNL1        0.0005
      6 C         139.9973  141.7861  154.6726 C.ar    1  UNL1        0.0000
      7 C         140.7574  145.6485  154.1683 C.2     1  UNL1        0.0330
      8 C         140.0651  146.6242  155.0731 C.2     1  UNL1        0.0537
      9 C         140.0896  147.9693  154.4097 C.2     1  UNL1        0.2309
     10 N         139.6768  149.4037  154.5589 N.2     1  UNL1       -0.0364
     11 C         140.1290  150.1458  153.3363 C.2     1  UNL1        0.3653
     12 N         140.8214  149.1701  152.4315 N.2     1  UNL1       -0.0462
     13 C         140.7970  147.8250  153.0949 C.3     1  UNL1        0.3308
     14 S         141.2097  146.3906  152.9457 S.3     1  UNL1       -0.0538
     15 C         139.9249  151.6070  153.0660 C.3     1  UNL1        0.1874
     16 C         138.6631  152.2425  152.5618 C.3     1  UNL1        0.0344
     17 C         138.9050  153.7176  152.4366 C.3     1  UNL1        0.0221
     18 C         137.9104  154.7375  151.9670 C.3     1  UNL1        0.0018
     19 C         140.3163  153.9938  152.8635 C.3     1  UNL1        0.0940
     20 N         140.9465  152.6894  153.2524 N.am    1  UNL1       -0.2691
     21 C         142.3518  152.5004  153.7419 C.2     1  UNL1        0.2440
     22 O         142.8449  151.1285  154.0951 O.2     1  UNL1       -0.2731
     23 C         143.2639  153.6834  153.8782 C.3     1  UNL1        0.1512
     24 N         144.5730  153.5422  154.5969 N.am    1  UNL1       -0.2640
     25 C         144.9506  154.5231  155.6671 C.2     1  UNL1        0.4021
     26 O         144.0192  155.6451  156.0187 O.2     1  UNL1       -0.2264
     27 H         145.1843  152.8059  154.3661 H       1  UNL1        0.1532
     28 O         146.2597  154.3819  156.3857 O.3     1  UNL1       -0.4306
     29 C         146.5186  155.1714  157.6346 C.3     1  UNL1        0.2573
     30 C         142.8669  155.0076  153.2959 C.3     1  UNL1        0.0270
     31 C         143.4141  155.4368  151.9669 C.3     1  UNL1        0.0022
     32 C         141.9228  155.9026  154.0428 C.3     1  UNL1        0.0022
     33 C         141.9825  136.8810  155.7899 C.ar    1  UNL1        0.0172
     34 C         142.4738  137.9014  156.7735 C.ar    1  UNL1        0.0015
     35 C         142.2696  139.3627  156.5032 C.ar    1  UNL1        0.0000
     36 C         141.5741  139.8035  155.2494 C.ar    1  UNL1        0.0000
     37 C         141.0828  138.7831  154.2659 C.ar    1  UNL1        0.0000
     38 C         141.2870  137.3218  154.5362 C.ar    1  UNL1        0.0015
     39 C         142.0735  133.0017  155.8835 C.ar    1  UNL1        0.1353
     40 N         142.9283  133.3405  157.0687 N.ar    1  UNL1       -0.2279
     41 C         142.9983  134.8349  157.1778 C.ar    1  UNL1        0.1171
     42 C         142.1867  135.4197  156.0601 C.ar    1  UNL1        0.0769
     43 N         141.6151  134.2869  155.2602 N.ar    1  UNL1       -0.3394
     44 H         141.0401  134.3718  154.4656 H       1  UNL1        0.1671
     45 C         143.9900  130.3706  156.1151 C.2     1  UNL1        0.2439
     46 O         144.5972  131.6196  156.6821 O.2     1  UNL1       -0.2731
     47 N         142.6172  130.4111  155.5120 N.am    1  UNL1       -0.2730
     48 C         141.8843  129.2493  154.9096 C.3     1  UNL1        0.0938
     49 C         140.5504  129.7406  154.4308 C.3     1  UNL1        0.0220
     50 C         139.4934  128.9120  153.7627 C.3     1  UNL1        0.0018
     51 C         140.4589  131.2061  154.7373 C.3     1  UNL1        0.0293
     52 C         141.7363  131.6205  155.4056 C.3     1  UNL1        0.1319
     53 C         144.7556  129.0813  156.1511 C.3     1  UNL1        0.1512
     54 C         144.0431  128.0329  158.4190 C.2     1  UNL1        0.4021
     55 O         142.6007  128.2227  158.0535 O.2     1  UNL1       -0.2264
     56 N         145.1205  128.4622  157.4678 N.am    1  UNL1       -0.2640
     57 H         146.0672  128.3376  157.7077 H       1  UNL1        0.1532
     58 C         143.3755  126.6631  160.5233 C.3     1  UNL1        0.2573
     59 O         144.4080  127.4139  159.7356 O.3     1  UNL1       -0.4306
     60 C         145.1564  128.4110  154.8704 C.3     1  UNL1        0.0270
     61 C         145.1291  129.1783  153.5818 C.3     1  UNL1        0.0022
     62 C         145.5845  126.9734  154.8784 C.3     1  UNL1        0.0022
@<TRIPOS>BOND
     1    58    59    1
     2    59    54    1
     3    54    55    2
     4    54    56   am
     5    53    56    1
     6    53    45    1
     7    45    46    2
     8    45    47   am
     9    47    48    1
    10    48    49    1
    11    49    50    1
    12    49    51    1
    13    51    52    1
    14    52    39    1
    15    39    40   ar
    16    40    41   ar
    17    41    42   ar
    18    42    33    1
    19    33    34   ar
    20    34    35   ar
    21    35    36   ar
    22    36     1    1
    23     1     2   ar
    24     2     3   ar
    25     3     4   ar
    26     4     7    1
    27     7     8    2
    28     8     9    1
    29     9    10    2
    30    10    11    1
    31    15    11    1
    32    15    16    1
    33    16    17    1
    34    17    18    1
    35    17    19    1
    36    19    20    1
    37    20    21   am
    38    21    22    2
    39    21    23    1
    40    23    24    1
    41    24    25   am
    42    25    26    2
    43    25    28    1
    44    28    29    1
    45    23    30    1
    46    30    31    1
    47    30    32    1
    48    11    12    2
    49    12    13    1
    50    13    14    1
    51     4     5   ar
    52     5     6   ar
    53    36    37   ar
    54    37    38   ar
    55    42    43   ar
    56    53    60    1
    57    60    61    1
    58    60    62    1
    59    52    47    1
    60    43    39   ar
    61    38    33   ar
    62     6     1   ar
    63    14     7    1
    64    13     9    1
    65    20    15    1
    66    56    57    1
    67    24    27    1
    68    43    44    1
@<TRIPOS>MOLECULE
*****
 62 68 0 0 0
SMALL
GASTEIGER

@<TRIPOS>ATOM
      1 C         142.3331  141.4241  153.7612 C.ar    1  UNL1        0.0000
      2 C         143.0866  140.2790  153.1521 C.ar    1  UNL1        0.0000
      3 C         144.5865  140.2897  153.1403 C.ar    1  UNL1        0.0005
      4 C         145.3330  141.4454  153.7377 C.ar    1  UNL1        0.0059
      5 C         144.5796  142.5905  154.3469 C.ar    1  UNL1        0.0005
      6 C         143.0796  142.5799  154.3587 C.ar    1  UNL1        0.0000
      7 C         146.8329  141.4561  153.7259 C.2     1  UNL1        0.0330
      8 C         147.7049  141.4813  152.5057 C.2     1  UNL1        0.0537
      9 C         149.1351  141.4843  152.9580 C.2     1  UNL1        0.2309
     10 N         150.5579  141.5017  152.4834 N.2     1  UNL1       -0.0364
     11 C         151.4492  141.4891  153.6898 C.2     1  UNL1        0.3653
     12 N         150.5772  141.4639  154.9101 N.2     1  UNL1       -0.0462
     13 C         149.1470  141.4609  154.4578 C.3     1  UNL1        0.3308
     14 S         147.7242  141.4435  154.9324 S.3     1  UNL1       -0.0538
     15 C         152.9491  141.4998  153.6781 C.3     1  UNL1        0.1874
     16 C         153.8337  140.4459  153.0807 C.3     1  UNL1        0.0344
     17 C         155.2591  140.8610  153.2951 C.3     1  UNL1        0.0221
     18 C         156.4747  140.0995  152.8566 C.3     1  UNL1        0.0018
     19 C         155.2555  142.1715  154.0250 C.3     1  UNL1        0.0940
     20 N         153.8278  142.5663  154.2617 N.am    1  UNL1       -0.2691
     21 C         153.3608  143.8093  154.9594 C.2     1  UNL1        0.2440
     22 O         151.8929  144.0713  155.1226 O.2     1  UNL1       -0.2731
     23 C         154.3617  144.7903  155.4940 C.3     1  UNL1        0.1512
     24 N         155.0369  144.5320  156.8083 N.am    1  UNL1       -0.2640
     25 C         154.3803  144.9630  158.0863 C.2     1  UNL1        0.4021
     26 O         153.0485  145.6522  158.0499 O.2     1  UNL1       -0.2264
     27 H         155.9110  144.0797  156.8322 H       1  UNL1        0.1532
     28 O         155.0555  144.7047  159.4006 O.3     1  UNL1       -0.4306
     29 C         155.4860  145.8553  160.2614 C.3     1  UNL1        0.2573
     30 C         154.6875  146.0296  154.7142 C.3     1  UNL1        0.0270
     31 C         155.2125  145.9181  153.3135 C.3     1  UNL1        0.0022
     32 C         154.4884  147.3805  155.3352 C.3     1  UNL1        0.0022
     33 C         137.8334  141.3921  153.7965 C.ar    1  UNL1        0.0172
     34 C         138.5958  140.2014  154.2975 C.ar    1  UNL1        0.0015
     35 C         140.0958  140.2121  154.2857 C.ar    1  UNL1        0.0000
     36 C         140.8332  141.4134  153.7730 C.ar    1  UNL1        0.0000
     37 C         140.0709  142.6041  153.2720 C.ar    1  UNL1        0.0000
     38 C         138.5709  142.5933  153.2837 C.ar    1  UNL1        0.0015
     39 C         134.0329  141.0486  154.5063 C.ar    1  UNL1        0.1353
     40 N         134.0178  141.6812  153.1462 N.ar    1  UNL1       -0.2279
     41 C         135.4397  141.8869  152.7148 C.ar    1  UNL1        0.1171
     42 C         136.3335  141.3814  153.8082 C.ar    1  UNL1        0.0769
     43 N         135.4642  140.8633  154.9154 N.ar    1  UNL1       -0.3394
     44 H         135.7779  140.4706  155.7619 H       1  UNL1        0.1671
     45 C         130.9594  141.9774  153.9232 C.2     1  UNL1        0.2439
     46 O         131.9565  142.5167  152.9409 O.2     1  UNL1       -0.2731
     47 N         131.4156  141.0950  155.0472 N.am    1  UNL1       -0.2730
     48 C         130.5392  140.4847  156.1004 C.3     1  UNL1        0.0938
     49 C         131.4103  139.6806  157.0194 C.3     1  UNL1        0.0220
     50 C         130.9478  138.9001  158.2140 C.3     1  UNL1        0.0018
     51 C         132.8251  139.7940  156.5341 C.3     1  UNL1        0.0293
     52 C         132.8283  140.6682  155.3151 C.3     1  UNL1        0.1319
     53 C         129.5060  142.3204  153.7815 C.3     1  UNL1        0.1512
     54 C         127.4484  140.7876  154.1901 C.2     1  UNL1        0.4021
     55 O         127.3297  141.3195  155.5876 O.2     1  UNL1       -0.2264
     56 N         128.5365  141.2880  153.2870 N.am    1  UNL1       -0.2640
     57 H         128.6144  140.9389  152.3698 H       1  UNL1        0.1532
     58 C         126.8572  138.8561  152.5561 C.3     1  UNL1        0.2573
     59 O         126.4789  139.7553  153.6956 O.3     1  UNL1       -0.4306
     60 C         129.0221  143.6956  154.1342 C.3     1  UNL1        0.0270
     61 C         128.0941  144.4246  153.2081 C.3     1  UNL1        0.0022
     62 C         129.4662  144.3420  155.4128 C.3     1  UNL1        0.0022
@<TRIPOS>BOND
     1    58    59    1
     2    59    54    1
     3    54    55    2
     4    54    56   am
     5    53    56    1
     6    53    45    1
     7    45    46    2
     8    45    47   am
     9    47    48    1
    10    48    49    1
    11    49    50    1
    12    49    51    1
    13    51    52    1
    14    52    39    1
    15    39    40   ar
    16    40    41   ar
    17    41    42   ar
    18    42    33    1
    19    33    34   ar
    20    34    35   ar
    21    35    36   ar
    22    36     1    1
    23     1     2   ar
    24     2     3   ar
    25     3     4   ar
    26     4     7    1
    27     7     8    2
    28     8     9    1
    29     9    10    2
    30    10    11    1
    31    15    11    1
    32    15    16    1
    33    16    17    1
    34    17    18    1
    35    17    19    1
    36    19    20    1
    37    20    21   am
    38    21    22    2
    39    21    23    1
    40    23    24    1
    41    24    25   am
    42    25    26    2
    43    25    28    1
    44    28    29    1
    45    23    30    1
    46    30    31    1
    47    30    32    1
    48    11    12    2
    49    12    13    1
    50    13    14    1
    51     4     5   ar
    52     5     6   ar
    53    36    37   ar
    54    37    38   ar
    55    42    43   ar
    56    53    60    1
    57    60    61    1
    58    60    62    1
    59    52    47    1
    60    43    39   ar
    61    38    33   ar
    62     6     1   ar
    63    14     7    1
    64    13     9    1
    65    20    15    1
    66    56    57    1
    67    24    27    1
    68    43    44    1
@<TRIPOS>MOLECULE
*****
 62 68 0 0 0
SMALL
GASTEIGER

@<TRIPOS>ATOM
      1 C         144.0058  142.2360  153.7662 C.ar    1  UNL1        0.0000
      2 C         143.2706  142.7062  152.5462 C.ar    1  UNL1        0.0000
      3 C         141.7717  142.6607  152.5097 C.ar    1  UNL1        0.0005
      4 C         141.0080  142.1450  153.6932 C.ar    1  UNL1        0.0059
      5 C         141.7432  141.6749  154.9133 C.ar    1  UNL1        0.0005
      6 C         143.2421  141.7204  154.9498 C.ar    1  UNL1        0.0000
      7 C         139.5092  142.0995  153.6568 C.2     1  UNL1        0.0330
      8 C         138.5818  143.1417  154.2080 C.2     1  UNL1        0.0537
      9 C         137.1740  142.6901  153.9546 C.2     1  UNL1        0.2309
     10 N         135.7308  143.0551  154.1386 N.2     1  UNL1       -0.0364
     11 C         134.8961  141.9594  153.5446 C.2     1  UNL1        0.3653
     12 N         135.8236  140.9172  152.9934 N.2     1  UNL1       -0.0462
     13 C         137.2313  141.3688  153.2468 C.3     1  UNL1        0.3308
     14 S         138.6746  141.0038  153.0628 S.3     1  UNL1       -0.0538
     15 C         133.3973  141.9139  153.5081 C.3     1  UNL1        0.1874
     16 C         132.5259  142.4372  152.4050 C.3     1  UNL1        0.0344
     17 C         131.0967  142.1838  152.7835 C.3     1  UNL1        0.0221
     18 C         129.8910  142.5466  151.9681 C.3     1  UNL1        0.0018
     19 C         131.0848  141.5039  154.1205 C.3     1  UNL1        0.0940
     20 N         132.5066  141.3371  154.5684 N.am    1  UNL1       -0.2691
     21 C         132.9585  140.7046  155.8512 C.2     1  UNL1        0.2440
     22 O         134.4222  140.6078  156.1648 O.2     1  UNL1       -0.2731
     23 C         131.9468  140.1689  156.8204 C.3     1  UNL1        0.1512
     24 N         130.5405  140.6905  156.8015 N.am    1  UNL1       -0.2640
     25 C         129.4414  139.8625  156.2044 C.2     1  UNL1        0.4021
     26 O         129.7486  138.5129  155.6263 O.2     1  UNL1       -0.2264
     27 H         130.3389  141.5763  157.1809 H       1  UNL1        0.1532
     28 O         128.0352  140.3842  156.1855 O.3     1  UNL1       -0.4306
     29 C         127.6499  141.4670  155.2216 C.3     1  UNL1        0.2573
     30 C         132.3413  139.1115  157.8086 C.3     1  UNL1        0.0270
     31 C         131.3601  138.0462  158.1989 C.3     1  UNL1        0.0022
     32 C         133.7170  139.1195  158.4065 C.3     1  UNL1        0.0022
     33 C         148.5024  142.3724  153.8755 C.ar    1  UNL1        0.0172
     34 C         147.7033  143.2092  154.8302 C.ar    1  UNL1        0.0015
     35 C         146.2044  143.1637  154.7937 C.ar    1  UNL1        0.0000
     36 C         145.5047  142.2815  153.8027 C.ar    1  UNL1        0.0000
     37 C         146.3038  141.4448  152.8480 C.ar    1  UNL1        0.0000
     38 C         147.8026  141.4903  152.8845 C.ar    1  UNL1        0.0015
     39 C         152.2877  143.2308  153.8671 C.ar    1  UNL1        0.1353
     40 N         152.3278  141.7450  154.0689 N.ar    1  UNL1       -0.2279
     41 C         150.9147  141.2426  154.0967 C.ar    1  UNL1        0.1171
     42 C         150.0012  142.4179  153.9119 C.ar    1  UNL1        0.0769
     43 N         150.8497  143.6467  153.7700 N.ar    1  UNL1       -0.3394
     44 H         150.5206  144.5649  153.6366 H       1  UNL1        0.1671
     45 C         153.6316  144.8791  156.3422 C.2     1  UNL1        0.2439
     46 O         152.4477  144.0461  156.7353 O.2     1  UNL1       -0.2731
     47 N         154.0945  144.8985  154.9155 N.am    1  UNL1       -0.2730
     48 C         155.2563  145.6790  154.3762 C.3     1  UNL1        0.0938
     49 C         155.3566  145.4038  152.9051 C.3     1  UNL1        0.0220
     50 C         156.3776  145.9783  151.9681 C.3     1  UNL1        0.0018
     51 C         154.2568  144.4532  152.5353 C.3     1  UNL1        0.0293
     52 C         153.4768  144.1409  153.7779 C.3     1  UNL1        0.1319
     53 C         154.3527  145.6926  157.3758 C.3     1  UNL1        0.1512
     54 C         154.6884  148.2667  157.2700 C.2     1  UNL1        0.4021
     55 O         155.9672  148.0687  156.5113 O.2     1  UNL1       -0.2264
     56 N         153.8812  147.0787  157.7022 N.am    1  UNL1       -0.2640
     57 H         153.0419  147.2086  158.2001 H       1  UNL1        0.1532
     58 C         154.2330  150.7185  156.5409 C.3     1  UNL1        0.2573
     59 O         154.2169  149.6527  157.5964 O.3     1  UNL1       -0.4306
     60 C         155.5452  145.1200  158.0830 C.3     1  UNL1        0.0270
     61 C         155.9112  145.6095  159.4529 C.3     1  UNL1        0.0022
     62 C         156.3717  144.0581  157.4203 C.3     1  UNL1        0.0022
@<TRIPOS>BOND
     1    58    59    1
     2    59    54    1
     3    54    55    2
     4    54    56   am
     5    53    56    1
     6    53    45    1
     7    45    46    2
     8    45    47   am
     9    47    48    1
    10    48    49    1
    11    49    50    1
    12    49    51    1
    13    51    52    1
    14    52    39    1
    15    39    40   ar
    16    40    41   ar
    17    41    42   ar
    18    42    33    1
    19    33    34   ar
    20    34    35   ar
    21    35    36   ar
    22    36     1    1
    23     1     2   ar
    24     2     3   ar
    25     3     4   ar
    26     4     7    1
    27     7     8    2
    28     8     9    1
    29     9    10    2
    30    10    11    1
    31    15    11    1
    32    15    16    1
    33    16    17    1
    34    17    18    1
    35    17    19    1
    36    19    20    1
    37    20    21   am
    38    21    22    2
    39    21    23    1
    40    23    24    1
    41    24    25   am
    42    25    26    2
    43    25    28    1
    44    28    29    1
    45    23    30    1
    46    30    31    1
    47    30    32    1
    48    11    12    2
    49    12    13    1
    50    13    14    1
    51     4     5   ar
    52     5     6   ar
    53    36    37   ar
    54    37    38   ar
    55    42    43   ar
    56    53    60    1
    57    60    61    1
    58    60    62    1
    59    52    47    1
    60    43    39   ar
    61    38    33   ar
    62     6     1   ar
    63    14     7    1
    64    13     9    1
    65    20    15    1
    66    56    57    1
    67    24    27    1
    68    43    44    1
@<TRIPOS>MOLECULE
*****
 62 68 0 0 0
SMALL
GASTEIGER

@<TRIPOS>ATOM
      1 C         141.5002  140.6910  153.2626 C.ar    1  UNL1        0.0000
      2 C         140.3884  139.9400  152.5918 C.ar    1  UNL1        0.0000
      3 C         140.3294  138.4442  152.6869 C.ar    1  UNL1        0.0005
      4 C         141.3822  137.6993  153.4528 C.ar    1  UNL1        0.0059
      5 C         142.4940  138.4502  154.1236 C.ar    1  UNL1        0.0005
      6 C         142.5530  139.9461  154.0285 C.ar    1  UNL1        0.0000
      7 C         141.3233  136.2034  153.5478 C.2     1  UNL1        0.0330
      8 C         141.3639  135.2444  152.3952 C.2     1  UNL1        0.0537
      9 C         141.2791  133.8523  152.9473 C.2     1  UNL1        0.2309
     10 N         141.2518  132.3992  152.5761 N.2     1  UNL1       -0.0364
     11 C         141.1419  131.5997  153.8406 C.2     1  UNL1        0.3653
     12 N         141.1014  132.5588  154.9933 N.2     1  UNL1       -0.0462
     13 C         141.1861  133.9509  154.4412 C.3     1  UNL1        0.3308
     14 S         141.2135  135.4040  154.8123 S.3     1  UNL1       -0.0538
     15 C         141.0830  130.1040  153.9357 C.3     1  UNL1        0.1874
     16 C         139.8693  129.2530  153.7057 C.3     1  UNL1        0.0344
     17 C         140.2636  127.8196  153.9054 C.3     1  UNL1        0.0221
     18 C         139.3593  126.6300  153.7747 C.3     1  UNL1        0.0018
     19 C         141.7210  127.7846  154.2587 C.3     1  UNL1        0.0940
     20 N         142.2274  129.1964  154.2774 N.am    1  UNL1       -0.2691
     21 C         143.6316  129.6255  154.5841 C.2     1  UNL1        0.2440
     22 O         143.9923  131.0813  154.5645 O.2     1  UNL1       -0.2731
     23 C         144.6752  128.5986  154.9103 C.3     1  UNL1        0.1512
     24 N         145.1404  128.4255  156.3258 N.am    1  UNL1       -0.2640
     25 C         144.2210  128.7580  157.4634 C.2     1  UNL1        0.4021
     26 O         142.8364  129.2637  157.1855 O.2     1  UNL1       -0.2264
     27 H         146.0492  128.0936  156.5082 H       1  UNL1        0.1532
     28 O         144.6863  128.5849  158.8789 O.3     1  UNL1       -0.4306
     29 C         143.7045  128.2153  159.9511 C.3     1  UNL1        0.2573
     30 C         145.2536  127.7448  153.8210 C.3     1  UNL1        0.0270
     31 C         146.2088  126.6395  154.1617 C.3     1  UNL1        0.0022
     32 C         144.8769  127.9963  152.3910 C.3     1  UNL1        0.0022
     33 C         141.6769  145.1784  152.9774 C.ar    1  UNL1        0.0172
     34 C         142.8864  144.3573  152.6412 C.ar    1  UNL1        0.0015
     35 C         142.8275  142.8615  152.7363 C.ar    1  UNL1        0.0000
     36 C         141.5591  142.1868  153.1676 C.ar    1  UNL1        0.0000
     37 C         140.3497  143.0078  153.5038 C.ar    1  UNL1        0.0000
     38 C         140.4086  144.5036  153.4087 C.ar    1  UNL1        0.0015
     39 C         141.2999  149.0306  153.2672 C.ar    1  UNL1        0.1353
     40 N         142.3531  148.9215  152.2047 N.ar    1  UNL1       -0.2279
     41 C         142.6225  147.4652  151.9669 C.ar    1  UNL1        0.1171
     42 C         141.7358  146.6742  152.8823 C.ar    1  UNL1        0.0769
     43 N         140.9184  147.6416  153.6860 N.ar    1  UNL1       -0.3394
     44 H         140.2490  147.4063  154.3685 H       1  UNL1        0.1671
     45 C         142.6346  151.9974  153.0105 C.2     1  UNL1        0.2439
     46 O         143.4375  150.9089  152.3619 O.2     1  UNL1       -0.2731
     47 N         141.3420  151.6685  153.6968 N.am    1  UNL1       -0.2730
     48 C         140.4361  152.6456  154.3856 C.3     1  UNL1        0.0938
     49 C         139.2626  151.8858  154.9293 C.3     1  UNL1        0.0220
     50 C         138.1105  152.4701  155.6919 C.3     1  UNL1        0.0018
     51 C         139.4433  150.4391  154.5765 C.3     1  UNL1        0.0293
     52 C         140.7286  150.3049  153.8148 C.3     1  UNL1        0.1319
     53 C         143.1244  153.4147  152.9729 C.3     1  UNL1        0.1512
     54 C         144.4719  154.6851  154.7951 C.2     1  UNL1        0.4021
     55 O         143.1948  155.2412  155.3517 O.2     1  UNL1       -0.2264
     56 N         144.4367  153.7718  153.6057 N.am    1  UNL1       -0.2640
     57 H         145.2749  153.4068  153.2404 H       1  UNL1        0.1532
     58 C         146.0060  154.7875  156.8894 C.3     1  UNL1        0.2573
     59 O         145.7841  155.0422  155.4278 O.3     1  UNL1       -0.4306
     60 C         142.3019  154.4749  152.3024 C.3     1  UNL1        0.0270
     61 C         140.8642  154.2087  151.9673 C.3     1  UNL1        0.0022
     62 C         142.9171  155.8011  151.9669 C.3     1  UNL1        0.0022
@<TRIPOS>BOND
     1    58    59    1
     2    59    54    1
     3    54    55    2
     4    54    56   am
     5    53    56    1
     6    53    45    1
     7    45    46    2
     8    45    47   am
     9    47    48    1
    10    48    49    1
    11    49    50    1
    12    49    51    1
    13    51    52    1
    14    52    39    1
    15    39    40   ar
    16    40    41   ar
    17    41    42   ar
    18    42    33    1
    19    33    34   ar
    20    34    35   ar
    21    35    36   ar
    22    36     1    1
    23     1     2   ar
    24     2     3   ar
    25     3     4   ar
    26     4     7    1
    27     7     8    2
    28     8     9    1
    29     9    10    2
    30    10    11    1
    31    15    11    1
    32    15    16    1
    33    16    17    1
    34    17    18    1
    35    17    19    1
    36    19    20    1
    37    20    21   am
    38    21    22    2
    39    21    23    1
    40    23    24    1
    41    24    25   am
    42    25    26    2
    43    25    28    1
    44    28    29    1
    45    23    30    1
    46    30    31    1
    47    30    32    1
    48    11    12    2
    49    12    13    1
    50    13    14    1
    51     4     5   ar
    52     5     6   ar
    53    36    37   ar
    54    37    38   ar
    55    42    43   ar
    56    53    60    1
    57    60    61    1
    58    60    62    1
    59    52    47    1
    60    43    39   ar
    61    38    33   ar
    62     6     1   ar
    63    14     7    1
    64    13     9    1
    65    20    15    1
    66    56    57    1
    67    24    27    1
    68    43    44    1
@<TRIPOS>MOLECULE
*****
 62 68 0 0 0
SMALL
GASTEIGER

@<TRIPOS>ATOM
      1 C         142.5743  141.6894  155.0452 C.ar    1  UNL1        0.0000
      2 C         143.1343  141.9810  153.6845 C.ar    1  UNL1        0.0000
      3 C         144.6143  142.1424  153.5013 C.ar    1  UNL1        0.0005
      4 C         145.5343  142.0123  154.6788 C.ar    1  UNL1        0.0059
      5 C         144.9744  141.7208  156.0395 C.ar    1  UNL1        0.0005
      6 C         143.4943  141.5593  156.2227 C.ar    1  UNL1        0.0000
      7 C         147.0143  142.1738  154.4957 C.2     1  UNL1        0.0330
      8 C         147.6873  142.9907  153.4329 C.2     1  UNL1        0.0537
      9 C         149.1701  142.8684  153.6236 C.2     1  UNL1        0.2309
     10 N         150.5024  143.2977  153.0846 N.2     1  UNL1       -0.0364
     11 C         151.5694  142.6706  153.9322 C.2     1  UNL1        0.3653
     12 N         150.8963  141.8536  154.9951 N.2     1  UNL1       -0.0462
     13 C         149.4135  141.9759  154.8044 C.3     1  UNL1        0.3308
     14 S         148.0812  141.5466  155.3434 S.3     1  UNL1       -0.0538
     15 C         153.0493  142.8320  153.7491 C.3     1  UNL1        0.1874
     16 C         153.8694  142.2462  152.6380 C.3     1  UNL1        0.0344
     17 C         155.2960  142.6597  152.8472 C.3     1  UNL1        0.0221
     18 C         156.4571  142.2958  151.9700 C.3     1  UNL1        0.0018
     19 C         155.3577  143.5010  154.0875 C.3     1  UNL1        0.0940
     20 N         153.9692  143.6075  154.6449 N.am    1  UNL1       -0.2691
     21 C         153.5705  144.3577  155.8811 C.2     1  UNL1        0.2440
     22 O         152.1356  144.3747  156.3181 O.2     1  UNL1       -0.2731
     23 C         154.6066  145.0909  156.6803 C.3     1  UNL1        0.1512
     24 N         155.1226  146.4161  156.2032 N.am    1  UNL1       -0.2640
     25 C         154.8230  147.6623  156.9826 C.2     1  UNL1        0.4021
     26 O         154.0075  147.5833  158.2391 O.2     1  UNL1       -0.2264
     27 H         155.6579  146.4680  155.3786 H       1  UNL1        0.1532
     28 O         155.3391  148.9875  156.5055 O.3     1  UNL1       -0.4306
     29 C         154.5819  150.2440  156.8187 C.3     1  UNL1        0.2573
     30 C         155.1268  144.4989  157.9567 C.3     1  UNL1        0.0270
     31 C         154.2998  144.5659  159.2063 C.3     1  UNL1        0.0022
     32 C         156.4741  143.8400  157.9834 C.3     1  UNL1        0.0022
     33 C         138.1343  141.2050  155.5944 C.ar    1  UNL1        0.0172
     34 C         138.8821  142.2283  156.3970 C.ar    1  UNL1        0.0015
     35 C         140.3621  142.3897  156.2138 C.ar    1  UNL1        0.0000
     36 C         141.0943  141.5280  155.2283 C.ar    1  UNL1        0.0000
     37 C         140.3466  140.5048  154.4258 C.ar    1  UNL1        0.0000
     38 C         138.8666  140.3434  154.6090 C.ar    1  UNL1        0.0015
     39 C         134.2585  141.1313  155.3995 C.ar    1  UNL1        0.1353
     40 N         134.4952  140.4590  156.7193 N.ar    1  UNL1       -0.2279
     41 C         135.9759  140.4048  156.9530 C.ar    1  UNL1        0.1171
     42 C         136.6543  141.0436  155.7776 C.ar    1  UNL1        0.0769
     43 N         135.5930  141.4927  154.8174 N.ar    1  UNL1       -0.3394
     44 H         135.7454  141.9451  153.9564 H       1  UNL1        0.1671
     45 C         131.3573  140.3049  156.6444 C.2     1  UNL1        0.2439
     46 O         132.5238  139.9085  157.5001 O.2     1  UNL1       -0.2731
     47 N         131.5885  141.0161  155.3441 N.am    1  UNL1       -0.2730
     48 C         130.5268  141.4722  154.3878 C.3     1  UNL1        0.0938
     49 C         131.2041  142.1339  153.2244 C.3     1  UNL1        0.0220
     50 C         130.5210  142.7370  152.0328 C.3     1  UNL1        0.0018
     51 C         132.6844  142.0868  153.4618 C.3     1  UNL1        0.0293
     52 C         132.9220  141.3959  154.7719 C.3     1  UNL1        0.1319
     53 C         129.9598  139.9902  157.0889 C.3     1  UNL1        0.1512
     54 C         127.7272  141.2380  156.6323 C.2     1  UNL1        0.4021
     55 O         127.4040  140.2606  155.5414 O.2     1  UNL1       -0.2264
     56 N         129.0051  141.1029  157.4061 N.am    1  UNL1       -0.2640
     57 H         129.2172  141.7444  158.1220 H       1  UNL1        0.1532
     58 C         127.1461  143.7703  156.6408 C.3     1  UNL1        0.2573
     59 O         126.7726  142.3507  156.9494 O.3     1  UNL1       -0.4306
     60 C         129.5168  138.5627  157.2164 C.3     1  UNL1        0.0270
     61 C         129.4535  137.6857  156.0011 C.3     1  UNL1        0.0022
     62 C         129.1372  138.0123  158.5591 C.3     1  UNL1        0.0022
@<TRIPOS>BOND
     1    58    59    1
     2    59    54    1
     3    54    55    2
     4    54    56   am
     5    53    56    1
     6    53    45    1
     7    45    46    2
     8    45    47   am
     9    47    48    1
    10    48    49    1
    11    49    50    1
    12    49    51    1
    13    51    52    1
    14    52    39    1
    15    39    40   ar
    16    40    41   ar
    17    41    42   ar
    18    42    33    1
    19    33    34   ar
    20    34    35   ar
    21    35    36   ar
    22    36     1    1
    23     1     2   ar
    24     2     3   ar
    25     3     4   ar
    26     4     7    1
    27     7     8    2
    28     8     9    1
    29     9    10    2
    30    10    11    1
    31    15    11    1
    32    15    16    1
    33    16    17    1
    34    17    18    1
    35    17    19    1
    36    19    20    1
    37    20    21   am
    38    21    22    2
    39    21    23    1
    40    23    24    1
    41    24    25   am
    42    25    26    2
    43    25    28    1
    44    28    29    1
    45    23    30    1
    46    30    31    1
    47    30    32    1
    48    11    12    2
    49    12    13    1
    50    13    14    1
    51     4     5   ar
    52     5     6   ar
    53    36    37   ar
    54    37    38   ar
    55    42    43   ar
    56    53    60    1
    57    60    61    1
    58    60    62    1
    59    52    47    1
    60    43    39   ar
    61    38    33   ar
    62     6     1   ar
    63    14     7    1
    64    13     9    1
    65    20    15    1
    66    56    57    1
    67    24    27    1
    68    43    44    1
@<TRIPOS>MOLECULE
*****
 62 68 0 0 0
SMALL
GASTEIGER

@<TRIPOS>ATOM
      1 C         141.4008  141.6963  155.3422 C.ar    1  UNL1        0.0000
      2 C         141.7289  140.8321  154.1609 C.ar    1  UNL1        0.0000
      3 C         142.0669  139.3844  154.3613 C.ar    1  UNL1        0.0005
      4 C         142.0767  138.8010  155.7432 C.ar    1  UNL1        0.0059
      5 C         141.7486  139.6652  156.9245 C.ar    1  UNL1        0.0005
      6 C         141.4107  141.1129  156.7240 C.ar    1  UNL1        0.0000
      7 C         142.4147  137.3534  155.9437 C.2     1  UNL1        0.0330
      8 C         142.6981  136.6880  157.2579 C.2     1  UNL1        0.0537
      9 C         142.9871  135.2404  156.9916 C.2     1  UNL1        0.2309
     10 N         143.3409  133.9345  157.6392 N.2     1  UNL1       -0.0364
     11 C         143.4547  132.8981  156.5609 C.2     1  UNL1        0.3653
     12 N         143.1712  133.5635  155.2467 N.2     1  UNL1       -0.0462
     13 C         142.8823  135.0111  155.5129 C.3     1  UNL1        0.3308
     14 S         142.5285  136.3170  154.8653 S.3     1  UNL1       -0.0538
     15 C         143.7927  131.4505  156.7614 C.3     1  UNL1        0.1874
     16 C         144.5178  130.8693  157.9388 C.3     1  UNL1        0.0344
     17 C         144.6381  129.3895  157.7248 C.3     1  UNL1        0.0221
     18 C         145.2940  128.4143  158.6568 C.3     1  UNL1        0.0018
     19 C         143.9873  129.0561  156.4151 C.3     1  UNL1        0.0940
     20 N         143.4648  130.3299  155.8197 N.am    1  UNL1       -0.2691
     21 C         142.7414  130.4602  154.5121 C.2     1  UNL1        0.2440
     22 O         142.2755  131.8069  154.0437 O.2     1  UNL1       -0.2731
     23 C         142.4839  129.2439  153.6730 C.3     1  UNL1        0.1512
     24 N         141.0864  128.7211  153.5190 N.am    1  UNL1       -0.2640
     25 C         140.4704  127.8947  154.6089 C.2     1  UNL1        0.4021
     26 O         141.2518  127.5912  155.8527 O.2     1  UNL1       -0.2264
     27 H         140.5735  128.9203  152.7026 H       1  UNL1        0.1532
     28 O         139.0728  127.3720  154.4547 O.3     1  UNL1       -0.4306
     29 C         138.5292  126.3823  155.4422 C.3     1  UNL1        0.2573
     30 C         143.6239  128.5502  152.9879 C.3     1  UNL1        0.0270
     31 C         143.5414  127.0813  152.6957 C.3     1  UNL1        0.0022
     32 C         144.8464  129.3256  152.5950 C.3     1  UNL1        0.0022
     33 C         140.3869  146.0390  154.7405 C.ar    1  UNL1        0.0172
     34 C         141.7554  145.6469  155.2133 C.ar    1  UNL1        0.0015
     35 C         142.0934  144.1993  155.4139 C.ar    1  UNL1        0.0000
     36 C         141.0629  143.1439  155.1416 C.ar    1  UNL1        0.0000
     37 C         139.6944  143.5360  154.6688 C.ar    1  UNL1        0.0000
     38 C         139.3565  144.9836  154.4683 C.ar    1  UNL1        0.0015
     39 C         139.4923  149.8088  154.9744 C.ar    1  UNL1        0.1353
     40 N         139.5656  149.6199  153.4881 N.ar    1  UNL1       -0.2279
     41 C         139.9096  148.1848  153.2196 C.ar    1  UNL1        0.1171
     42 C         140.0490  147.4867  154.5399 C.ar    1  UNL1        0.0769
     43 N         139.7910  148.4903  155.6245 N.ar    1  UNL1       -0.3394
     44 H         139.8138  148.3145  156.5929 H       1  UNL1        0.1671
     45 C         140.0384  152.8185  153.8375 C.2     1  UNL1        0.2439
     46 O         140.4603  151.7262  152.8999 O.2     1  UNL1       -0.2731
     47 N         139.4268  152.4743  155.1632 N.am    1  UNL1       -0.2730
     48 C         138.9589  153.4531  156.1990 C.3     1  UNL1        0.0938
     49 C         138.4186  152.6746  157.3618 C.3     1  UNL1        0.0220
     50 C         137.8449  153.2543  158.6208 C.3     1  UNL1        0.0018
     51 C         138.5527  151.2147  157.0446 C.3     1  UNL1        0.0293
     52 C         139.1758  151.0909  155.6857 C.3     1  UNL1        0.1319
     53 C         140.2281  154.2549  153.4493 C.3     1  UNL1        0.1512
     54 C         142.8075  154.4642  153.2184 C.2     1  UNL1        0.4021
     55 O         142.8242  153.2646  152.3180 O.2     1  UNL1       -0.2264
     56 N         141.5095  154.9593  153.7841 N.am    1  UNL1       -0.2640
     57 H         141.4985  155.7466  154.3750 H       1  UNL1        0.1532
     58 C         144.6671  155.0581  154.9328 C.3     1  UNL1        0.2573
     59 O         144.0887  155.1686  153.5531 O.3     1  UNL1       -0.4306
     60 C         139.1365  154.9869  152.7265 C.3     1  UNL1        0.0270
     61 C         139.4401  156.2699  152.0110 C.3     1  UNL1        0.0022
     62 C         137.7414  154.4360  152.7190 C.3     1  UNL1        0.0022
@<TRIPOS>BOND
     1    58    59    1
     2    59    54    1
     3    54    55    2
     4    54    56   am
     5    53    56    1
     6    53    45    1
     7    45    46    2
     8    45    47   am
     9    47    48    1
    10    48    49    1
    11    49    50    1
    12    49    51    1
    13    51    52    1
    14    52    39    1
    15    39    40   ar
    16    40    41   ar
    17    41    42   ar
    18    42    33    1
    19    33    34   ar
    20    34    35   ar
    21    35    36   ar
    22    36     1    1
    23     1     2   ar
    24     2     3   ar
    25     3     4   ar
    26     4     7    1
    27     7     8    2
    28     8     9    1
    29     9    10    2
    30    10    11    1
    31    15    11    1
    32    15    16    1
    33    16    17    1
    34    17    18    1
    35    17    19    1
    36    19    20    1
    37    20    21   am
    38    21    22    2
    39    21    23    1
    40    23    24    1
    41    24    25   am
    42    25    26    2
    43    25    28    1
    44    28    29    1
    45    23    30    1
    46    30    31    1
    47    30    32    1
    48    11    12    2
    49    12    13    1
    50    13    14    1
    51     4     5   ar
    52     5     6   ar
    53    36    37   ar
    54    37    38   ar
    55    42    43   ar
    56    53    60    1
    57    60    61    1
    58    60    62    1
    59    52    47    1
    60    43    39   ar
    61    38    33   ar
    62     6     1   ar
    63    14     7    1
    64    13     9    1
    65    20    15    1
    66    56    57    1
    67    24    27    1
    68    43    44    1
@<TRIPOS>MOLECULE
*****
 62 68 0 0 0
SMALL
GASTEIGER

@<TRIPOS>ATOM
      1 C         140.8416  141.4105  154.7876 C.ar    1  UNL1        0.0000
      2 C         141.8788  142.3099  155.3919 C.ar    1  UNL1        0.0000
      3 C         141.6032  143.7766  155.5440 C.ar    1  UNL1        0.0005
      4 C         140.2903  144.3437  155.0917 C.ar    1  UNL1        0.0059
      5 C         139.2531  143.4443  154.4873 C.ar    1  UNL1        0.0005
      6 C         139.5287  141.9777  154.3352 C.ar    1  UNL1        0.0000
      7 C         140.0146  145.8103  155.2437 C.2     1  UNL1        0.0330
      8 C         140.3844  146.8833  154.2629 C.2     1  UNL1        0.0537
      9 C         139.9191  148.1975  154.8163 C.2     1  UNL1        0.2309
     10 N         139.8600  149.6729  154.5521 N.2     1  UNL1       -0.0364
     11 C         139.1661  150.3240  155.7117 C.2     1  UNL1        0.3653
     12 N         138.7963  149.2510  156.6925 N.2     1  UNL1       -0.0462
     13 C         139.2616  147.9368  156.1391 C.3     1  UNL1        0.3308
     14 S         139.3207  146.4614  156.4033 S.3     1  UNL1       -0.0538
     15 C         138.8904  151.7905  155.8637 C.3     1  UNL1        0.1874
     16 C         138.2813  152.4535  157.0636 C.3     1  UNL1        0.0344
     17 C         138.1899  153.9243  156.7841 C.3     1  UNL1        0.0221
     18 C         137.6421  154.9662  157.7139 C.3     1  UNL1        0.0018
     19 C         138.7424  154.1705  155.4114 C.3     1  UNL1        0.0940
     20 N         139.1753  152.8518  154.8426 N.am    1  UNL1       -0.2691
     21 C         139.7860  152.6327  153.4902 C.2     1  UNL1        0.2440
     22 O         140.1705  151.2494  153.0561 O.2     1  UNL1       -0.2731
     23 C         140.0121  153.7970  152.5719 C.3     1  UNL1        0.1512
     24 N         141.3663  154.0239  151.9679 N.am    1  UNL1       -0.2640
     25 C         142.4278  154.7362  152.7528 C.2     1  UNL1        0.4021
     26 O         142.1351  155.2215  154.1416 O.2     1  UNL1       -0.2264
     27 H         141.5583  153.7054  151.0564 H       1  UNL1        0.1532
     28 O         143.7819  154.9630  152.1488 O.3     1  UNL1       -0.4306
     29 C         144.9749  155.1630  153.0359 C.3     1  UNL1        0.2573
     30 C         138.8840  154.7344  152.2575 C.3     1  UNL1        0.0270
     31 C         139.1274  156.2140  152.2173 C.3     1  UNL1        0.0022
     32 C         137.5125  154.1922  151.9834 C.3     1  UNL1        0.0022
     33 C         141.6687  137.0108  154.3314 C.ar    1  UNL1        0.0172
     34 C         140.6760  137.4855  155.3508 C.ar    1  UNL1        0.0015
     35 C         140.4003  138.9521  155.5029 C.ar    1  UNL1        0.0000
     36 C         141.1173  139.9439  154.6355 C.ar    1  UNL1        0.0000
     37 C         142.1100  139.4692  153.6162 C.ar    1  UNL1        0.0000
     38 C         142.3857  138.0026  153.4642 C.ar    1  UNL1        0.0015
     39 C         142.5478  133.2456  154.6725 C.ar    1  UNL1        0.1353
     40 N         142.1895  133.3291  153.2183 N.ar    1  UNL1       -0.2279
     41 C         141.8166  134.7497  152.9135 C.ar    1  UNL1        0.1171
     42 C         141.9444  135.5442  154.1794 C.ar    1  UNL1        0.0769
     43 N         142.3963  134.6147  155.2665 N.ar    1  UNL1       -0.3394
     44 H         142.5640  134.8601  156.2050 H       1  UNL1        0.1671
     45 C         141.8683  130.1710  153.8157 C.2     1  UNL1        0.2439
     46 O         141.2984  131.2030  152.8882 O.2     1  UNL1       -0.2731
     47 N         142.6691  130.5968  155.0104 N.am    1  UNL1       -0.2730
     48 C         143.2981  129.6842  156.0210 C.3     1  UNL1        0.0938
     49 C         143.9993  130.5334  157.0395 C.3     1  UNL1        0.0220
     50 C         144.7622  130.0330  158.2301 C.3     1  UNL1        0.0018
     51 C         143.8035  131.9709  156.6583 C.3     1  UNL1        0.0293
     52 C         142.9814  132.0101  155.4042 C.3     1  UNL1        0.1319
     53 C         141.6374  128.7132  153.5485 C.3     1  UNL1        0.1512
     54 C         140.0903  127.3877  155.1608 C.2     1  UNL1        0.4021
     55 O         141.2073  127.2965  156.1578 O.2     1  UNL1       -0.2264
     56 N         140.3053  128.0960  153.8562 N.am    1  UNL1       -0.2640
     57 H         139.5721  128.1558  153.2019 H       1  UNL1        0.1532
     58 C         138.0773  127.0671  156.7718 C.3     1  UNL1        0.2573
     59 O         138.7582  126.7706  155.4685 O.3     1  UNL1       -0.4306
     60 C         142.7386  127.8724  152.9735 C.3     1  UNL1        0.0270
     61 C         143.9943  128.5220  152.4719 C.3     1  UNL1        0.0022
     62 C         142.5842  126.3823  152.9001 C.3     1  UNL1        0.0022
@<TRIPOS>BOND
     1    58    59    1
     2    59    54    1
     3    54    55    2
     4    54    56   am
     5    53    56    1
     6    53    45    1
     7    45    46    2
     8    45    47   am
     9    47    48    1
    10    48    49    1
    11    49    50    1
    12    49    51    1
    13    51    52    1
    14    52    39    1
    15    39    40   ar
    16    40    41   ar
    17    41    42   ar
    18    42    33    1
    19    33    34   ar
    20    34    35   ar
    21    35    36   ar
    22    36     1    1
    23     1     2   ar
    24     2     3   ar
    25     3     4   ar
    26     4     7    1
    27     7     8    2
    28     8     9    1
    29     9    10    2
    30    10    11    1
    31    15    11    1
    32    15    16    1
    33    16    17    1
    34    17    18    1
    35    17    19    1
    36    19    20    1
    37    20    21   am
    38    21    22    2
    39    21    23    1
    40    23    24    1
    41    24    25   am
    42    25    26    2
    43    25    28    1
    44    28    29    1
    45    23    30    1
    46    30    31    1
    47    30    32    1
    48    11    12    2
    49    12    13    1
    50    13    14    1
    51     4     5   ar
    52     5     6   ar
    53    36    37   ar
    54    37    38   ar
    55    42    43   ar
    56    53    60    1
    57    60    61    1
    58    60    62    1
    59    52    47    1
    60    43    39   ar
    61    38    33   ar
    62     6     1   ar
    63    14     7    1
    64    13     9    1
    65    20    15    1
    66    56    57    1
    67    24    27    1
    68    43    44    1
@<TRIPOS>MOLECULE
*****
 62 68 0 0 0
SMALL
GASTEIGER

@<TRIPOS>ATOM
      1 C         142.3685  141.6360  154.2754 C.ar    1  UNL1        0.0000
      2 C         143.1301  140.7882  153.3002 C.ar    1  UNL1        0.0000
      3 C         144.6244  140.8934  153.2219 C.ar    1  UNL1        0.0005
      4 C         145.3571  141.8466  154.1189 C.ar    1  UNL1        0.0059
      5 C         144.5955  142.6944  155.0941 C.ar    1  UNL1        0.0005
      6 C         143.1012  142.5892  155.1725 C.ar    1  UNL1        0.0000
      7 C         146.8513  141.9519  154.0406 C.2     1  UNL1        0.0330
      8 C         147.6316  142.6332  152.9557 C.2     1  UNL1        0.0537
      9 C         149.0901  142.4968  153.2782 C.2     1  UNL1        0.2309
     10 N         150.4738  142.8335  152.8070 N.2     1  UNL1       -0.0364
     11 C         151.4502  142.2760  153.7999 C.2     1  UNL1        0.3653
     12 N         150.6699  141.5947  154.8849 N.2     1  UNL1       -0.0462
     13 C         149.2113  141.7311  154.5624 C.3     1  UNL1        0.3308
     14 S         147.8277  141.3944  155.0336 S.3     1  UNL1       -0.0538
     15 C         152.9444  142.3813  153.7217 C.3     1  UNL1        0.1874
     16 C         153.8378  141.5893  152.8136 C.3     1  UNL1        0.0344
     17 C         155.2532  142.0156  153.0685 C.3     1  UNL1        0.0221
     18 C         156.4730  141.4804  152.3789 C.3     1  UNL1        0.0018
     19 C         155.2346  143.0712  154.1342 C.3     1  UNL1        0.0940
     20 N         153.8077  143.2972  154.5378 N.am    1  UNL1       -0.2691
     21 C         153.3282  144.2685  155.5754 C.2     1  UNL1        0.2440
     22 O         151.8627  144.3849  155.8735 O.2     1  UNL1       -0.2731
     23 C         154.3142  145.1234  156.3150 C.3     1  UNL1        0.1512
     24 N         154.7471  146.4388  155.7385 N.am    1  UNL1       -0.2640
     25 C         154.6485  147.6879  156.5631 C.2     1  UNL1        0.4021
     26 O         154.1169  147.6216  157.9642 O.2     1  UNL1       -0.2264
     27 H         155.0960  146.4823  154.8189 H       1  UNL1        0.1532
     28 O         155.0814  149.0033  155.9866 O.3     1  UNL1       -0.4306
     29 C         155.1584  150.2177  156.8638 C.3     1  UNL1        0.2573
     30 C         154.8674  144.6629  157.6311 C.3     1  UNL1        0.0270
     31 C         156.3192  144.3054  157.7507 C.3     1  UNL1        0.0022
     32 C         153.9686  144.5598  158.8276 C.3     1  UNL1        0.0022
     33 C         137.8858  141.3201  154.5102 C.ar    1  UNL1        0.0172
     34 C         138.7081  140.1044  154.2001 C.ar    1  UNL1        0.0015
     35 C         140.2024  140.2098  154.1219 C.ar    1  UNL1        0.0000
     36 C         140.8743  141.5307  154.3537 C.ar    1  UNL1        0.0000
     37 C         140.0520  142.7463  154.6637 C.ar    1  UNL1        0.0000
     38 C         138.5578  142.6409  154.7419 C.ar    1  UNL1        0.0015
     39 C         134.1537  140.6425  155.3336 C.ar    1  UNL1        0.1353
     40 N         134.0306  141.4630  154.0839 N.ar    1  UNL1       -0.2279
     41 C         135.4136  141.8167  153.6234 C.ar    1  UNL1        0.1171
     42 C         136.3916  141.2148  154.5884 C.ar    1  UNL1        0.0769
     43 N         135.6130  140.4891  155.6454 N.ar    1  UNL1       -0.3394
     44 H         135.9930  139.9983  156.4096 H       1  UNL1        0.1671
     45 C         131.0257  141.5499  155.1298 C.2     1  UNL1        0.2439
     46 O         131.9396  142.2979  154.2048 O.2     1  UNL1       -0.2731
     47 N         131.5795  140.4921  156.0378 N.am    1  UNL1       -0.2730
     48 C         130.7927  139.6658  157.0114 C.3     1  UNL1        0.0938
     49 C         131.7443  138.7379  157.7068 C.3     1  UNL1        0.0220
     50 C         131.3842  137.7333  158.7611 C.3     1  UNL1        0.0018
     51 C         133.1191  138.9908  157.1630 C.3     1  UNL1        0.0293
     52 C         133.0173  140.0751  156.1314 C.3     1  UNL1        0.1319
     53 C         129.5582  141.8598  155.1468 C.3     1  UNL1        0.1512
     54 C         127.9061  139.9701  154.4761 C.2     1  UNL1        0.4021
     55 O         128.2264  140.2035  153.0295 O.2     1  UNL1       -0.2264
     56 N         128.5720  140.7982  155.5348 N.am    1  UNL1       -0.2640
     57 H         128.3617  140.6450  156.4843 H       1  UNL1        0.1532
     58 C         126.7964  138.4879  156.2987 C.3     1  UNL1        0.2573
     59 O         126.9199  138.9086  154.8642 O.3     1  UNL1       -0.4306
     60 C         129.0769  143.2311  154.7758 C.3     1  UNL1        0.0270
     61 C         129.1025  143.6727  153.3425 C.3     1  UNL1        0.0022
     62 C         128.5699  144.1609  155.8381 C.3     1  UNL1        0.0022
@<TRIPOS>BOND
     1    58    59    1
     2    59    54    1
     3    54    55    2
     4    54    56   am
     5    53    56    1
     6    53    45    1
     7    45    46    2
     8    45    47   am
     9    47    48    1
    10    48    49    1
    11    49    50    1
    12    49    51    1
    13    51    52    1
    14    52    39    1
    15    39    40   ar
    16    40    41   ar
    17    41    42   ar
    18    42    33    1
    19    33    34   ar
    20    34    35   ar
    21    35    36   ar
    22    36     1    1
    23     1     2   ar
    24     2     3   ar
    25     3     4   ar
    26     4     7    1
    27     7     8    2
    28     8     9    1
    29     9    10    2
    30    10    11    1
    31    15    11    1
    32    15    16    1
    33    16    17    1
    34    17    18    1
    35    17    19    1
    36    19    20    1
    37    20    21   am
    38    21    22    2
    39    21    23    1
    40    23    24    1
    41    24    25   am
    42    25    26    2
    43    25    28    1
    44    28    29    1
    45    23    30    1
    46    30    31    1
    47    30    32    1
    48    11    12    2
    49    12    13    1
    50    13    14    1
    51     4     5   ar
    52     5     6   ar
    53    36    37   ar
    54    37    38   ar
    55    42    43   ar
    56    53    60    1
    57    60    61    1
    58    60    62    1
    59    52    47    1
    60    43    39   ar
    61    38    33   ar
    62     6     1   ar
    63    14     7    1
    64    13     9    1
    65    20    15    1
    66    56    57    1
    67    24    27    1
    68    43    44    1
