@<TRIPOS>MOLECULE
*****
 24 26 0 0 0
SMALL
GASTEIGER

@<TRIPOS>ATOM
      1 S         139.2152  138.9638  166.7108 S.O2    1  UNL1        0.0129
      2 O         137.8978  138.7288  167.3885 O.2     1  UNL1       -0.1683
      3 O         140.5326  139.1988  166.0332 O.2     1  UNL1       -0.1683
      4 C         139.6373  139.8555  167.8408 C.ar    1  UNL1        0.1066
      5 C         138.7469  140.0241  169.0360 C.ar    1  UNL1        0.0199
      6 C         139.1690  140.9157  170.1659 C.ar    1  UNL1        0.0210
      7 C         140.4816  141.6387  170.1006 C.ar    1  UNL1        0.0893
      8 N         141.1590  142.5775  171.0546 N.ar    1  UNL1       -0.2245
      9 C         142.4681  142.9890  170.4490 C.ar    1  UNL1        0.1567
     10 N         143.4697  143.9212  171.0636 N.pl3   1  UNL1       -0.3375
     11 S         142.5998  142.3046  169.1207 S.2     1  UNL1       -0.0519
     12 C         141.3721  141.4701  168.9054 C.ar    1  UNL1        0.0510
     13 C         140.9500  140.5785  167.7755 C.ar    1  UNL1        0.0264
     14 H         143.2923  144.3230  171.9447 H       1  UNL1        0.1442
     15 H         144.3046  144.1313  170.5859 H       1  UNL1        0.1442
     16 C         138.7931  138.0721  165.5809 C.3     1  UNL1        0.1823
     17 C         138.3002  139.7662  161.4412 C.ar    1  UNL1        0.0684
     18 C         137.8793  140.5702  162.6356 C.ar    1  UNL1        0.0100
     19 C         138.0436  140.0055  164.0155 C.ar    1  UNL1       -0.0019
     20 C         138.6288  138.6368  164.2010 C.ar    1  UNL1        0.0018
     21 C         139.0497  137.8329  163.0067 C.ar    1  UNL1       -0.0019
     22 C         138.8854  138.3976  161.6268 C.ar    1  UNL1        0.0100
     23 N         137.9717  140.8956  158.6814 N.1     1  UNL1       -0.1908
     24 C         138.1360  140.3309  160.0613 C.1     1  UNL1        0.1004
@<TRIPOS>BOND
     1    23    24    3
     2    24    17    1
     3    17    18   ar
     4    18    19   ar
     5    19    20   ar
     6    20    16    1
     7    16     1    1
     8     1     2    2
     9     1     3    2
    10     1     4    1
    11     4     5   ar
    12     5     6   ar
    13     6     7   ar
    14     7     8   ar
    15     8     9   ar
    16     9    10    1
    17     9    11   ar
    18    11    12   ar
    19    12    13   ar
    20    20    21   ar
    21    21    22   ar
    22    22    17   ar
    23    13     4   ar
    24    12     7   ar
    25    10    14    1
    26    10    15    1
@<TRIPOS>MOLECULE
*****
 24 26 0 0 0
SMALL
GASTEIGER

@<TRIPOS>ATOM
      1 S         138.9936  139.4647  166.4651 S.O2    1  UNL1        0.0129
      2 O         138.2722  138.4698  167.3251 O.2     1  UNL1       -0.1683
      3 O         139.7151  140.4597  165.6051 O.2     1  UNL1       -0.1683
      4 C         139.5069  140.1548  167.6942 C.ar    1  UNL1        0.1066
      5 C         138.7836  139.9994  168.9989 C.ar    1  UNL1        0.0199
      6 C         139.2968  140.6894  170.2279 C.ar    1  UNL1        0.0210
      7 C         140.5335  141.5350  170.1520 C.ar    1  UNL1        0.0893
      8 N         141.2708  142.3302  171.1884 N.ar    1  UNL1       -0.2245
      9 C         142.4498  142.9771  170.5241 C.ar    1  UNL1        0.1567
     10 N         143.4602  143.8637  171.1899 N.pl3   1  UNL1       -0.3375
     11 S         142.4412  142.5817  169.0772 S.2     1  UNL1       -0.0519
     12 C         141.2568  141.6905  168.8472 C.ar    1  UNL1        0.0510
     13 C         140.7436  141.0004  167.6183 C.ar    1  UNL1        0.0264
     14 H         143.3806  144.0663  172.1500 H       1  UNL1        0.1442
     15 H         144.2029  144.2430  170.6667 H       1  UNL1        0.1442
     16 C         138.4804  138.7746  165.2362 C.3     1  UNL1        0.1823
     17 C         141.2291  138.0531  161.7471 C.ar    1  UNL1        0.0684
     18 C         141.5586  137.4782  163.0928 C.ar    1  UNL1        0.0100
     19 C         140.6424  137.7187  164.2559 C.ar    1  UNL1       -0.0019
     20 C         139.3966  138.5341  164.0732 C.ar    1  UNL1        0.0018
     21 C         139.0672  139.1090  162.7275 C.ar    1  UNL1       -0.0019
     22 C         139.9834  138.8685  161.5644 C.ar    1  UNL1        0.0100
     23 N         143.0615  137.5721  159.4210 N.1     1  UNL1       -0.1908
     24 C         142.1453  137.8126  160.5840 C.1     1  UNL1        0.1004
@<TRIPOS>BOND
     1    23    24    3
     2    24    17    1
     3    17    18   ar
     4    18    19   ar
     5    19    20   ar
     6    20    16    1
     7    16     1    1
     8     1     2    2
     9     1     3    2
    10     1     4    1
    11     4     5   ar
    12     5     6   ar
    13     6     7   ar
    14     7     8   ar
    15     8     9   ar
    16     9    10    1
    17     9    11   ar
    18    11    12   ar
    19    12    13   ar
    20    20    21   ar
    21    21    22   ar
    22    22    17   ar
    23    13     4   ar
    24    12     7   ar
    25    10    14    1
    26    10    15    1
@<TRIPOS>MOLECULE
*****
 24 26 0 0 0
SMALL
GASTEIGER

@<TRIPOS>ATOM
      1 S         138.6816  139.1057  165.2411 S.O2    1  UNL1        0.0129
      2 O         139.3862  137.7885  165.1050 O.2     1  UNL1       -0.1683
      3 O         137.9770  140.4228  165.3772 O.2     1  UNL1       -0.1683
      4 C         138.6396  139.2375  163.7474 C.ar    1  UNL1        0.1066
      5 C         138.6979  138.0120  162.8844 C.ar    1  UNL1        0.0199
      6 C         138.6558  138.1439  161.3909 C.ar    1  UNL1        0.0210
      7 C         138.5555  139.5012  160.7603 C.ar    1  UNL1        0.0893
      8 N         138.4953  139.9401  159.3272 N.ar    1  UNL1       -0.2245
      9 C         138.3998  141.4369  159.3045 C.ar    1  UNL1        0.1567
     10 N         138.3175  142.2967  158.0781 N.pl3   1  UNL1       -0.3375
     11 S         138.4009  141.9230  160.7236 S.2     1  UNL1       -0.0519
     12 C         138.4971  140.7266  161.6233 C.ar    1  UNL1        0.0510
     13 C         138.5392  140.5948  163.1169 C.ar    1  UNL1        0.0264
     14 H         138.3237  141.8823  157.1851 H       1  UNL1        0.1442
     15 H         138.2574  143.2754  158.1662 H       1  UNL1        0.1442
     16 C         138.7237  138.9738  166.7347 C.3     1  UNL1        0.1823
     17 C         141.2612  141.7804  169.1706 C.ar    1  UNL1        0.0684
     18 C         141.6653  141.4286  167.7695 C.ar    1  UNL1        0.0100
     19 C         140.8195  140.4931  166.9575 C.ar    1  UNL1       -0.0019
     20 C         139.5695  139.9093  167.5467 C.ar    1  UNL1        0.0018
     21 C         139.1655  140.2611  168.9477 C.ar    1  UNL1       -0.0019
     22 C         140.0114  141.1967  169.7597 C.ar    1  UNL1        0.0100
     23 N         142.9529  143.6515  170.7946 N.1     1  UNL1       -0.1908
     24 C         142.1071  142.7159  169.9826 C.1     1  UNL1        0.1004
@<TRIPOS>BOND
     1    23    24    3
     2    24    17    1
     3    17    18   ar
     4    18    19   ar
     5    19    20   ar
     6    20    16    1
     7    16     1    1
     8     1     2    2
     9     1     3    2
    10     1     4    1
    11     4     5   ar
    12     5     6   ar
    13     6     7   ar
    14     7     8   ar
    15     8     9   ar
    16     9    10    1
    17     9    11   ar
    18    11    12   ar
    19    12    13   ar
    20    20    21   ar
    21    21    22   ar
    22    22    17   ar
    23    13     4   ar
    24    12     7   ar
    25    10    14    1
    26    10    15    1
@<TRIPOS>MOLECULE
*****
 24 26 0 0 0
SMALL
GASTEIGER

@<TRIPOS>ATOM
      1 S         140.0109  141.6964  163.6666 S.O2    1  UNL1        0.0129
      2 O         141.3975  141.1247  163.6860 O.2     1  UNL1       -0.1683
      3 O         138.6242  142.2680  163.6473 O.2     1  UNL1       -0.1683
      4 C         140.4382  142.6978  162.6348 C.ar    1  UNL1        0.1066
      5 C         140.3399  144.1655  162.9283 C.ar    1  UNL1        0.0199
      6 C         140.7672  145.1669  161.8965 C.ar    1  UNL1        0.0210
      7 C         141.2928  144.7006  160.5713 C.ar    1  UNL1        0.0893
      8 N         141.7856  145.4480  159.3677 N.ar    1  UNL1       -0.2245
      9 C         142.1885  144.4422  158.3304 C.ar    1  UNL1        0.1567
     10 N         142.7386  144.7511  156.9695 N.pl3   1  UNL1       -0.3375
     11 S         141.9446  143.0732  158.8928 S.2     1  UNL1       -0.0519
     12 C         141.3910  143.2329  160.2778 C.ar    1  UNL1        0.0510
     13 C         140.9637  142.2315  161.3095 C.ar    1  UNL1        0.0264
     14 H         142.8633  145.6868  156.6897 H       1  UNL1        0.1442
     15 H         142.9750  144.0183  156.3561 H       1  UNL1        0.1442
     16 C         139.5836  140.6949  164.6984 C.3     1  UNL1        0.1823
     17 C         140.1689  141.5805  169.0714 C.ar    1  UNL1        0.0684
     18 C         139.6027  140.2591  168.6430 C.ar    1  UNL1        0.0100
     19 C         139.4076  139.9639  167.1853 C.ar    1  UNL1       -0.0019
     20 C         139.7787  140.9901  166.1560 C.ar    1  UNL1        0.0018
     21 C         140.3448  142.3114  166.5845 C.ar    1  UNL1       -0.0019
     22 C         140.5399  142.6066  168.0422 C.ar    1  UNL1        0.0100
     23 N         140.5590  142.1708  171.9867 N.1     1  UNL1       -0.1908
     24 C         140.3640  141.8756  170.5291 C.1     1  UNL1        0.1004
@<TRIPOS>BOND
     1    23    24    3
     2    24    17    1
     3    17    18   ar
     4    18    19   ar
     5    19    20   ar
     6    20    16    1
     7    16     1    1
     8     1     2    2
     9     1     3    2
    10     1     4    1
    11     4     5   ar
    12     5     6   ar
    13     6     7   ar
    14     7     8   ar
    15     8     9   ar
    16     9    10    1
    17     9    11   ar
    18    11    12   ar
    19    12    13   ar
    20    20    21   ar
    21    21    22   ar
    22    22    17   ar
    23    13     4   ar
    24    12     7   ar
    25    10    14    1
    26    10    15    1
@<TRIPOS>MOLECULE
*****
 24 26 0 0 0
SMALL
GASTEIGER

@<TRIPOS>ATOM
      1 S         141.5754  138.8889  165.8771 S.O2    1  UNL1        0.0129
      2 O         142.9115  138.4498  166.3986 O.2     1  UNL1       -0.1683
      3 O         140.2394  139.3280  165.3556 O.2     1  UNL1       -0.1683
      4 C         141.4611  139.8757  167.0011 C.ar    1  UNL1        0.1066
      5 C         140.1159  140.2015  167.5791 C.ar    1  UNL1        0.0199
      6 C         140.0016  141.1883  168.7030 C.ar    1  UNL1        0.0210
      7 C         141.2325  141.8492  169.2489 C.ar    1  UNL1        0.0893
      8 N         141.4299  142.8547  170.3444 N.ar    1  UNL1       -0.2245
      9 C         142.8971  143.1502  170.4435 C.ar    1  UNL1        0.1567
     10 N         143.5419  144.1015  171.4075 N.pl3   1  UNL1       -0.3375
     11 S         143.6065  142.3274  169.4091 S.2     1  UNL1       -0.0519
     12 C         142.5777  141.5234  168.6709 C.ar    1  UNL1        0.0510
     13 C         142.6920  140.5366  167.5470 C.ar    1  UNL1        0.0264
     14 H         142.9888  144.5990  172.0525 H       1  UNL1        0.1442
     15 H         144.5181  144.2285  171.3953 H       1  UNL1        0.1442
     16 C         141.6898  137.9021  164.7532 C.3     1  UNL1        0.1823
     17 C         143.2371  139.2302  160.7417 C.ar    1  UNL1        0.0684
     18 C         142.1052  138.2490  160.8217 C.ar    1  UNL1        0.0100
     19 C         141.5894  137.8064  162.1588 C.ar    1  UNL1       -0.0019
     20 C         142.2056  138.3448  163.4161 C.ar    1  UNL1        0.0018
     21 C         143.3374  139.3258  163.3361 C.ar    1  UNL1       -0.0019
     22 C         143.8532  139.7685  161.9989 C.ar    1  UNL1        0.0100
     23 N         144.2686  140.1155  158.0674 N.1     1  UNL1       -0.1908
     24 C         143.7529  139.6728  159.4046 C.1     1  UNL1        0.1004
@<TRIPOS>BOND
     1    23    24    3
     2    24    17    1
     3    17    18   ar
     4    18    19   ar
     5    19    20   ar
     6    20    16    1
     7    16     1    1
     8     1     2    2
     9     1     3    2
    10     1     4    1
    11     4     5   ar
    12     5     6   ar
    13     6     7   ar
    14     7     8   ar
    15     8     9   ar
    16     9    10    1
    17     9    11   ar
    18    11    12   ar
    19    12    13   ar
    20    20    21   ar
    21    21    22   ar
    22    22    17   ar
    23    13     4   ar
    24    12     7   ar
    25    10    14    1
    26    10    15    1
@<TRIPOS>MOLECULE
*****
 24 26 0 0 0
SMALL
GASTEIGER

@<TRIPOS>ATOM
      1 S         140.2888  138.0267  162.8824 S.O2    1  UNL1        0.0129
      2 O         139.5206  139.2689  162.5405 O.2     1  UNL1       -0.1683
      3 O         141.0570  136.7846  163.2243 O.2     1  UNL1       -0.1683
      4 C         141.2947  138.3563  161.8195 C.ar    1  UNL1        0.1066
      5 C         142.7407  138.0137  162.0233 C.ar    1  UNL1        0.0199
      6 C         143.7465  138.3433  160.9604 C.ar    1  UNL1        0.0210
      7 C         143.3062  139.0154  159.6937 C.ar    1  UNL1        0.0893
      8 N         144.0637  139.4596  158.4775 N.ar    1  UNL1       -0.2245
      9 C         143.0857  140.0767  157.5222 C.ar    1  UNL1        0.1567
     10 N         143.4122  140.6550  156.1772 N.pl3   1  UNL1       -0.3375
     11 S         141.7239  140.0139  158.1479 S.2     1  UNL1       -0.0519
     12 C         141.8602  139.3580  159.4900 C.ar    1  UNL1        0.0510
     13 C         140.8544  139.0285  160.5529 C.ar    1  UNL1        0.0264
     14 H         144.3413  140.6501  155.8516 H       1  UNL1        0.1442
     15 H         142.6974  141.0396  155.6200 H       1  UNL1        0.1442
     16 C         139.2830  137.6973  163.9453 C.3     1  UNL1        0.1823
     17 C         139.4094  139.8350  167.9031 C.ar    1  UNL1        0.0684
     18 C         138.1612  139.1210  167.4758 C.ar    1  UNL1        0.0100
     19 C         138.1191  138.4084  166.1566 C.ar    1  UNL1       -0.0019
     20 C         139.3251  138.4098  165.2645 C.ar    1  UNL1        0.0018
     21 C         140.5732  139.1238  165.6918 C.ar    1  UNL1       -0.0019
     22 C         140.6153  139.8364  167.0111 C.ar    1  UNL1        0.0100
     23 N         139.4937  141.2601  170.5416 N.1     1  UNL1       -0.1908
     24 C         139.4515  140.5476  169.2223 C.1     1  UNL1        0.1004
@<TRIPOS>BOND
     1    23    24    3
     2    24    17    1
     3    17    18   ar
     4    18    19   ar
     5    19    20   ar
     6    20    16    1
     7    16     1    1
     8     1     2    2
     9     1     3    2
    10     1     4    1
    11     4     5   ar
    12     5     6   ar
    13     6     7   ar
    14     7     8   ar
    15     8     9   ar
    16     9    10    1
    17     9    11   ar
    18    11    12   ar
    19    12    13   ar
    20    20    21   ar
    21    21    22   ar
    22    22    17   ar
    23    13     4   ar
    24    12     7   ar
    25    10    14    1
    26    10    15    1
@<TRIPOS>MOLECULE
*****
 24 26 0 0 0
SMALL
GASTEIGER

@<TRIPOS>ATOM
      1 S         138.8676  138.8364  164.8255 S.O2    1  UNL1        0.0129
      2 O         139.7551  137.6602  165.1066 O.2     1  UNL1       -0.1683
      3 O         137.9802  140.0126  164.5444 O.2     1  UNL1       -0.1683
      4 C         139.2105  138.7467  163.3679 C.ar    1  UNL1        0.1066
      5 C         138.1309  138.8734  162.3343 C.ar    1  UNL1        0.0199
      6 C         138.4738  138.7837  160.8769 C.ar    1  UNL1        0.0210
      7 C         139.8963  138.5673  160.4530 C.ar    1  UNL1        0.0893
      8 N         140.5320  138.4383  159.1004 N.ar    1  UNL1       -0.2245
      9 C         142.0045  138.2319  159.2981 C.ar    1  UNL1        0.1567
     10 N         143.0238  138.0552  158.2119 N.pl3   1  UNL1       -0.3375
     11 S         142.2788  138.2333  160.7728 S.2     1  UNL1       -0.0519
     12 C         140.9759  138.4406  161.4865 C.ar    1  UNL1        0.0510
     13 C         140.6330  138.5303  162.9440 C.ar    1  UNL1        0.0264
     14 H         142.7446  138.0692  157.2679 H       1  UNL1        0.1442
     15 H         143.9719  137.9252  158.4429 H       1  UNL1        0.1442
     16 C         138.5248  138.9261  166.2830 C.3     1  UNL1        0.1823
     17 C         140.7843  141.7544  168.9561 C.ar    1  UNL1        0.0684
     18 C         141.0726  141.7217  167.4843 C.ar    1  UNL1        0.0100
     19 C         140.3194  140.7790  166.5933 C.ar    1  UNL1       -0.0019
     20 C         139.2780  139.8689  167.1740 C.ar    1  UNL1        0.0018
     21 C         138.9897  139.9016  168.6457 C.ar    1  UNL1       -0.0019
     22 C         139.7429  140.8444  169.5367 C.ar    1  UNL1        0.0100
     23 N         142.2907  143.6400  170.7381 N.1     1  UNL1       -0.1908
     24 C         141.5375  142.6972  169.8471 C.1     1  UNL1        0.1004
@<TRIPOS>BOND
     1    23    24    3
     2    24    17    1
     3    17    18   ar
     4    18    19   ar
     5    19    20   ar
     6    20    16    1
     7    16     1    1
     8     1     2    2
     9     1     3    2
    10     1     4    1
    11     4     5   ar
    12     5     6   ar
    13     6     7   ar
    14     7     8   ar
    15     8     9   ar
    16     9    10    1
    17     9    11   ar
    18    11    12   ar
    19    12    13   ar
    20    20    21   ar
    21    21    22   ar
    22    22    17   ar
    23    13     4   ar
    24    12     7   ar
    25    10    14    1
    26    10    15    1
@<TRIPOS>MOLECULE
*****
 24 26 0 0 0
SMALL
GASTEIGER

@<TRIPOS>ATOM
      1 S         142.7987  138.6553  164.8635 S.O2    1  UNL1        0.0129
      2 O         144.1495  139.2768  164.6656 O.2     1  UNL1       -0.1683
      3 O         141.4480  138.0338  165.0615 O.2     1  UNL1       -0.1683
      4 C         142.6149  138.5814  163.3766 C.ar    1  UNL1        0.1066
      5 C         143.8083  138.4354  162.4797 C.ar    1  UNL1        0.0199
      6 C         143.6244  138.3615  160.9929 C.ar    1  UNL1        0.0210
      7 C         142.2471  138.4336  160.4030 C.ar    1  UNL1        0.0893
      8 N         141.7588  138.3875  158.9854 N.ar    1  UNL1       -0.2245
      9 C         140.2635  138.5050  159.0063 C.ar    1  UNL1        0.1567
     10 N         139.3622  138.5040  157.8072 N.pl3   1  UNL1       -0.3375
     11 S         139.8278  138.6237  160.4367 S.2     1  UNL1       -0.0519
     12 C         141.0538  138.5796  161.2999 C.ar    1  UNL1        0.0510
     13 C         141.2377  138.6535  162.7867 C.ar    1  UNL1        0.0264
     14 H         139.7447  138.4206  156.9039 H       1  UNL1        0.1442
     15 H         138.3881  138.5866  157.9236 H       1  UNL1        0.1442
     16 C         142.9826  138.7292  166.3503 C.3     1  UNL1        0.1823
     17 C         141.2810  142.1974  168.6583 C.ar    1  UNL1        0.0684
     18 C         141.3310  142.2459  167.1599 C.ar    1  UNL1        0.0100
     19 C         141.8982  141.0899  166.3905 C.ar    1  UNL1       -0.0019
     20 C         142.4154  139.8853  167.1197 C.ar    1  UNL1        0.0018
     21 C         142.3654  139.8368  168.6180 C.ar    1  UNL1       -0.0019
     22 C         141.7981  140.9928  169.3873 C.ar    1  UNL1        0.0100
     23 N         140.1465  144.5094  170.1969 N.1     1  UNL1       -0.1908
     24 C         140.7138  143.3534  169.4276 C.1     1  UNL1        0.1004
@<TRIPOS>BOND
     1    23    24    3
     2    24    17    1
     3    17    18   ar
     4    18    19   ar
     5    19    20   ar
     6    20    16    1
     7    16     1    1
     8     1     2    2
     9     1     3    2
    10     1     4    1
    11     4     5   ar
    12     5     6   ar
    13     6     7   ar
    14     7     8   ar
    15     8     9   ar
    16     9    10    1
    17     9    11   ar
    18    11    12   ar
    19    12    13   ar
    20    20    21   ar
    21    21    22   ar
    22    22    17   ar
    23    13     4   ar
    24    12     7   ar
    25    10    14    1
    26    10    15    1
@<TRIPOS>MOLECULE
*****
 24 26 0 0 0
SMALL
GASTEIGER

@<TRIPOS>ATOM
      1 S         138.1305  141.4728  162.2092 S.O2    1  UNL1        0.0129
      2 O         138.9119  140.2080  162.0102 O.2     1  UNL1       -0.1683
      3 O         137.3491  142.7376  162.4083 O.2     1  UNL1       -0.1683
      4 C         138.7939  142.0722  161.0047 C.ar    1  UNL1        0.1066
      5 C         138.5942  141.4535  159.6529 C.ar    1  UNL1        0.0199
      6 C         139.2576  142.0529  158.4485 C.ar    1  UNL1        0.0210
      7 C         140.1206  143.2709  158.5959 C.ar    1  UNL1        0.0893
      8 N         140.8970  144.0776  157.5976 N.ar    1  UNL1       -0.2245
      9 C         141.5765  145.1948  158.3325 C.ar    1  UNL1        0.1567
     10 N         142.4578  146.2441  157.7222 N.pl3   1  UNL1       -0.3375
     11 S         141.2200  145.0786  159.7849 S.2     1  UNL1       -0.0519
     12 C         140.3202  143.8895  159.9477 C.ar    1  UNL1        0.0510
     13 C         139.6569  143.2902  161.1521 C.ar    1  UNL1        0.0264
     14 H         142.6335  146.2369  156.7536 H       1  UNL1        0.1442
     15 H         142.8604  146.9401  158.2903 H       1  UNL1        0.1442
     16 C         137.4672  140.8734  163.4137 C.3     1  UNL1        0.1823
     17 C         139.7897  140.3445  167.2316 C.ar    1  UNL1        0.0684
     18 C         139.9626  141.5909  166.4151 C.ar    1  UNL1        0.0100
     19 C         139.1885  141.7672  165.1424 C.ar    1  UNL1       -0.0019
     20 C         138.2414  140.6971  164.6863 C.ar    1  UNL1        0.0018
     21 C         138.0685  139.4508  165.5028 C.ar    1  UNL1       -0.0019
     22 C         138.8426  139.2745  166.7755 C.ar    1  UNL1        0.0100
     23 N         141.3380  139.9919  169.7769 N.1     1  UNL1       -0.1908
     24 C         140.5638  140.1682  168.5042 C.1     1  UNL1        0.1004
@<TRIPOS>BOND
     1    23    24    3
     2    24    17    1
     3    17    18   ar
     4    18    19   ar
     5    19    20   ar
     6    20    16    1
     7    16     1    1
     8     1     2    2
     9     1     3    2
    10     1     4    1
    11     4     5   ar
    12     5     6   ar
    13     6     7   ar
    14     7     8   ar
    15     8     9   ar
    16     9    10    1
    17     9    11   ar
    18    11    12   ar
    19    12    13   ar
    20    20    21   ar
    21    21    22   ar
    22    22    17   ar
    23    13     4   ar
    24    12     7   ar
    25    10    14    1
    26    10    15    1
