@<TRIPOS>MOLECULE
*****
 30 32 0 0 0
SMALL
GASTEIGER

@<TRIPOS>ATOM
      1 N         142.6637  139.6032  167.1566 N.am    1  UNL1       -0.3041
      2 C         142.5485  141.0799  166.9196 C.2     1  UNL1        0.2253
      3 O         143.1013  141.6832  165.6625 O.2     1  UNL1       -0.2748
      4 H         142.3009  139.2073  167.9817 H       1  UNL1        0.1494
      5 C         141.8805  141.9533  167.9399 C.3     1  UNL1        0.0875
      6 C         143.2241  141.7808  168.5843 C.3     1  UNL1        0.0127
      7 C         143.5136  142.4363  169.9020 C.3     1  UNL1        0.0008
      8 C         142.4596  143.2642  170.5755 C.3     1  UNL1        0.0000
      9 C         141.1160  143.4367  169.9312 C.3     1  UNL1        0.0008
     10 C         140.8265  142.7813  168.6134 C.3     1  UNL1        0.0127
     11 C         140.7690  141.8225  166.9413 C.ar    1  UNL1       -0.0145
     12 C         140.4152  142.9811  166.0567 C.ar    1  UNL1       -0.0015
     13 C         139.3036  142.8502  165.0581 C.ar    1  UNL1        0.0293
     14 C         138.5458  141.5607  164.9440 C.ar    1  UNL1        0.1401
     15 F         137.4343  141.4299  163.9453 F       1  UNL1       -0.2042
     16 C         138.8996  140.4022  165.8285 C.ar    1  UNL1        0.0293
     17 C         140.0112  140.5330  166.8272 C.ar    1  UNL1       -0.0015
     18 C         143.3317  138.7298  166.1363 C.3     1  UNL1        0.0894
     19 N         141.5024  138.2341  162.0549 N.3     1  UNL1       -0.2727
     20 C         140.7981  137.6923  163.2633 C.3     1  UNL1        0.0721
     21 C         141.4078  137.8576  164.6238 C.3     1  UNL1        0.0191
     22 C         142.7220  138.5646  164.7759 C.3     1  UNL1        0.0224
     23 C         143.4263  139.1064  163.5675 C.3     1  UNL1        0.0191
     24 C         142.8166  138.9411  162.2070 C.3     1  UNL1        0.0721
     25 C         140.8927  138.0689  160.6944 C.3     1  UNL1        0.0721
     26 C         139.4127  138.2304  160.5112 C.3     1  UNL1        0.0173
     27 C         137.8029  139.0367  161.6329 C.3     1  UNL1        0.0000
     28 C         138.7845  139.5863  160.6408 C.3     1  UNL1        0.0013
     29 C         139.7661  140.1360  159.6487 C.3     1  UNL1        0.0000
     30 C         138.1563  140.9423  160.7704 C.3     1  UNL1        0.0000
@<TRIPOS>BOND
     1    27    28    1
     2    28    29    1
     3    28    30    1
     4    28    26    1
     5    26    25    1
     6    25    19    1
     7    19    20    1
     8    20    21    1
     9    21    22    1
    10    22    18    1
    11    18     1    1
    12     1     2   am
    13     2     3    2
    14     2     5    1
    15     5    11    1
    16    11    12   ar
    17    12    13   ar
    18    13    14   ar
    19    14    15    1
    20    14    16   ar
    21    16    17   ar
    22     5     6    1
    23     6     7    1
    24     7     8    1
    25     8     9    1
    26     9    10    1
    27    22    23    1
    28    23    24    1
    29    24    19    1
    30    10     5    1
    31    17    11   ar
    32     1     4    1
@<TRIPOS>MOLECULE
*****
 30 32 0 0 0
SMALL
GASTEIGER

@<TRIPOS>ATOM
      1 N         139.8933  139.9260  167.5163 N.am    1  UNL1       -0.3041
      2 C         140.5551  141.2421  167.2338 C.2     1  UNL1        0.2253
      3 O         140.0181  142.1353  166.1550 O.2     1  UNL1       -0.2748
      4 H         140.2457  139.3397  168.2243 H       1  UNL1        0.1494
      5 C         141.7539  141.6650  168.0301 C.3     1  UNL1        0.0875
      6 C         140.6613  142.2600  168.8682 C.3     1  UNL1        0.0127
      7 C         141.0024  143.0201  170.1155 C.3     1  UNL1        0.0008
      8 C         142.4359  143.1854  170.5247 C.3     1  UNL1        0.0000
      9 C         143.5285  142.5905  169.6866 C.3     1  UNL1        0.0008
     10 C         143.1875  141.8303  168.4393 C.3     1  UNL1        0.0127
     11 C         142.4301  140.9232  166.9155 C.ar    1  UNL1       -0.0145
     12 C         142.8542  141.6549  165.6766 C.ar    1  UNL1       -0.0015
     13 C         143.5304  140.9130  164.5620 C.ar    1  UNL1        0.0293
     14 C         143.7825  139.4395  164.6862 C.ar    1  UNL1        0.1401
     15 F         144.4587  138.6977  163.5715 F       1  UNL1       -0.2042
     16 C         143.3584  138.7080  165.9250 C.ar    1  UNL1        0.0293
     17 C         142.6822  139.4498  167.0397 C.ar    1  UNL1       -0.0015
     18 C         138.6945  139.5031  166.7200 C.3     1  UNL1        0.0894
     19 N         139.1384  138.4671  162.3634 N.3     1  UNL1       -0.2727
     20 C         139.8875  137.6842  163.4006 C.3     1  UNL1        0.0721
     21 C         139.7396  138.0295  164.8528 C.3     1  UNL1        0.0191
     22 C         138.8425  139.1578  165.2678 C.3     1  UNL1        0.0224
     23 C         138.0933  139.9407  164.2306 C.3     1  UNL1        0.0191
     24 C         138.2413  139.5954  162.7784 C.3     1  UNL1        0.0721
     25 C         139.2864  138.1218  160.9112 C.3     1  UNL1        0.0721
     26 C         140.1222  138.9876  160.0158 C.3     1  UNL1        0.0173
     27 C         142.0161  138.1287  160.4344 C.3     1  UNL1        0.0000
     28 C         141.4416  139.5128  160.4988 C.3     1  UNL1        0.0013
     29 C         140.8671  140.8969  160.5632 C.3     1  UNL1        0.0000
     30 C         142.7611  140.0379  160.9818 C.3     1  UNL1        0.0000
@<TRIPOS>BOND
     1    27    28    1
     2    28    29    1
     3    28    30    1
     4    28    26    1
     5    26    25    1
     6    25    19    1
     7    19    20    1
     8    20    21    1
     9    21    22    1
    10    22    18    1
    11    18     1    1
    12     1     2   am
    13     2     3    2
    14     2     5    1
    15     5    11    1
    16    11    12   ar
    17    12    13   ar
    18    13    14   ar
    19    14    15    1
    20    14    16   ar
    21    16    17   ar
    22     5     6    1
    23     6     7    1
    24     7     8    1
    25     8     9    1
    26     9    10    1
    27    22    23    1
    28    23    24    1
    29    24    19    1
    30    10     5    1
    31    17    11   ar
    32     1     4    1
@<TRIPOS>MOLECULE
*****
 30 32 0 0 0
SMALL
GASTEIGER

@<TRIPOS>ATOM
      1 N         138.7817  140.0800  166.5584 N.am    1  UNL1       -0.3041
      2 C         140.1226  140.4277  167.1339 C.2     1  UNL1        0.2253
      3 O         141.2996  139.5309  166.8880 O.2     1  UNL1       -0.2748
      4 H         138.0092  140.6685  166.7198 H       1  UNL1        0.1494
      5 C         140.2864  141.6721  167.9552 C.3     1  UNL1        0.0875
      6 C         139.6637  140.7664  168.9760 C.3     1  UNL1        0.0127
      7 C         139.4012  141.2696  170.3644 C.3     1  UNL1        0.0008
      8 C         139.7616  142.6785  170.7322 C.3     1  UNL1        0.0000
      9 C         140.3844  143.5842  169.7114 C.3     1  UNL1        0.0008
     10 C         140.6468  143.0810  168.3230 C.3     1  UNL1        0.0127
     11 C         140.8523  142.1456  166.6492 C.ar    1  UNL1       -0.0145
     12 C         139.9387  142.6757  165.5841 C.ar    1  UNL1       -0.0015
     13 C         140.5047  143.1492  164.2782 C.ar    1  UNL1        0.0293
     14 C         141.9841  143.0925  164.0373 C.ar    1  UNL1        0.1401
     15 F         142.5500  143.5660  162.7312 F       1  UNL1       -0.2042
     16 C         142.8976  142.5625  165.1023 C.ar    1  UNL1        0.0293
     17 C         142.3317  142.0890  166.4083 C.ar    1  UNL1       -0.0015
     18 C         138.6178  138.8356  165.7371 C.3     1  UNL1        0.0894
     19 N         141.3164  138.0937  162.2133 N.3     1  UNL1       -0.2727
     20 C         140.5034  139.3523  162.2835 C.3     1  UNL1        0.0721
     21 C         139.6038  139.5995  163.4581 C.3     1  UNL1        0.0191
     22 C         139.5174  138.5883  164.5625 C.3     1  UNL1        0.0224
     23 C         140.3304  137.3297  164.4924 C.3     1  UNL1        0.0191
     24 C         141.2299  137.0825  163.3178 C.3     1  UNL1        0.0721
     25 C         142.2159  137.8464  161.0387 C.3     1  UNL1        0.0721
     26 C         143.6689  138.2106  161.1170 C.3     1  UNL1        0.0173
     27 C         143.7941  140.0647  160.0940 C.3     1  UNL1        0.0000
     28 C         144.0734  139.6049  161.4942 C.3     1  UNL1        0.0013
     29 C         144.3527  139.1450  162.8944 C.3     1  UNL1        0.0000
     30 C         144.4779  140.9992  161.8714 C.3     1  UNL1        0.0000
@<TRIPOS>BOND
     1    27    28    1
     2    28    29    1
     3    28    30    1
     4    28    26    1
     5    26    25    1
     6    25    19    1
     7    19    20    1
     8    20    21    1
     9    21    22    1
    10    22    18    1
    11    18     1    1
    12     1     2   am
    13     2     3    2
    14     2     5    1
    15     5    11    1
    16    11    12   ar
    17    12    13   ar
    18    13    14   ar
    19    14    15    1
    20    14    16   ar
    21    16    17   ar
    22     5     6    1
    23     6     7    1
    24     7     8    1
    25     8     9    1
    26     9    10    1
    27    22    23    1
    28    23    24    1
    29    24    19    1
    30    10     5    1
    31    17    11   ar
    32     1     4    1
@<TRIPOS>MOLECULE
*****
 30 32 0 0 0
SMALL
GASTEIGER

@<TRIPOS>ATOM
      1 N         140.1568  143.6196  166.0527 N.am    1  UNL1       -0.3041
      2 C         140.4629  142.3611  166.8095 C.2     1  UNL1        0.2253
      3 O         139.6111  141.1422  166.6135 O.2     1  UNL1       -0.2748
      4 H         140.7159  144.4196  166.1814 H       1  UNL1        0.1494
      5 C         141.6208  142.3217  167.7622 C.3     1  UNL1        0.0875
      6 C         140.6248  143.0745  168.5937 C.3     1  UNL1        0.0127
      7 C         140.9929  143.5312  169.9743 C.3     1  UNL1        0.0008
      8 C         142.3570  143.2351  170.5234 C.3     1  UNL1        0.0000
      9 C         143.3530  142.4824  169.6919 C.3     1  UNL1        0.0008
     10 C         142.9849  142.0257  168.3114 C.3     1  UNL1        0.0127
     11 C         142.2147  141.5827  166.5999 C.ar    1  UNL1       -0.0145
     12 C         142.8476  142.3428  165.4721 C.ar    1  UNL1       -0.0015
     13 C         143.4414  141.6036  164.3098 C.ar    1  UNL1        0.0293
     14 C         143.4025  140.1046  164.2752 C.ar    1  UNL1        0.1401
     15 F         143.9964  139.3655  163.1127 F       1  UNL1       -0.2042
     16 C         142.7696  139.3446  165.4029 C.ar    1  UNL1        0.0293
     17 C         142.1757  140.0836  166.5653 C.ar    1  UNL1       -0.0015
     18 C         138.9990  143.6590  165.1000 C.3     1  UNL1        0.0894
     19 N         138.7999  140.7425  161.6788 N.3     1  UNL1       -0.2727
     20 C         140.0549  141.5266  161.9238 C.3     1  UNL1        0.0721
     21 C         140.1212  142.4988  163.0642 C.3     1  UNL1        0.0191
     22 C         138.9326  142.6869  163.9596 C.3     1  UNL1        0.0224
     23 C         137.6776  141.9027  163.7146 C.3     1  UNL1        0.0191
     24 C         137.6112  140.9306  162.5742 C.3     1  UNL1        0.0721
     25 C         138.7335  139.7703  160.5384 C.3     1  UNL1        0.0721
     26 C         139.0158  138.3163  160.7750 C.3     1  UNL1        0.0173
     27 C         138.9387  137.5960  162.7688 C.3     1  UNL1        0.0000
     28 C         140.0365  137.9068  161.7951 C.3     1  UNL1        0.0013
     29 C         141.1343  138.2176  160.8213 C.3     1  UNL1        0.0000
     30 C         141.0572  137.4972  162.8151 C.3     1  UNL1        0.0000
@<TRIPOS>BOND
     1    27    28    1
     2    28    29    1
     3    28    30    1
     4    28    26    1
     5    26    25    1
     6    25    19    1
     7    19    20    1
     8    20    21    1
     9    21    22    1
    10    22    18    1
    11    18     1    1
    12     1     2   am
    13     2     3    2
    14     2     5    1
    15     5    11    1
    16    11    12   ar
    17    12    13   ar
    18    13    14   ar
    19    14    15    1
    20    14    16   ar
    21    16    17   ar
    22     5     6    1
    23     6     7    1
    24     7     8    1
    25     8     9    1
    26     9    10    1
    27    22    23    1
    28    23    24    1
    29    24    19    1
    30    10     5    1
    31    17    11   ar
    32     1     4    1
@<TRIPOS>MOLECULE
*****
 30 32 0 0 0
SMALL
GASTEIGER

@<TRIPOS>ATOM
      1 N         140.1795  142.7241  166.7339 N.am    1  UNL1       -0.3041
      2 C         141.4656  141.9528  166.7010 C.2     1  UNL1        0.2253
      3 O         142.4026  142.1063  165.5398 O.2     1  UNL1       -0.2748
      4 H         139.5645  142.6233  167.4961 H       1  UNL1        0.1494
      5 C         141.8147  141.0281  167.8293 C.3     1  UNL1        0.0875
      6 C         142.5419  142.2636  168.2706 C.3     1  UNL1        0.0127
      7 C         143.3235  142.2570  169.5508 C.3     1  UNL1        0.0008
      8 C         143.3780  141.0147  170.3898 C.3     1  UNL1        0.0000
      9 C         142.6508  139.7792  169.9485 C.3     1  UNL1        0.0008
     10 C         141.8692  139.7859  168.6683 C.3     1  UNL1        0.0127
     11 C         140.9663  140.1137  166.9962 C.ar    1  UNL1       -0.0145
     12 C         141.5849  139.3281  165.8781 C.ar    1  UNL1       -0.0015
     13 C         140.7364  138.4137  165.0451 C.ar    1  UNL1        0.0293
     14 C         139.2694  138.2850  165.3300 C.ar    1  UNL1        0.1401
     15 F         138.4210  137.3706  164.4968 F       1  UNL1       -0.2042
     16 C         138.6508  139.0706  166.4480 C.ar    1  UNL1        0.0293
     17 C         139.4993  139.9850  167.2812 C.ar    1  UNL1       -0.0015
     18 C         139.8304  143.6487  165.6056 C.3     1  UNL1        0.0894
     19 N         138.5192  141.9680  161.6426 N.3     1  UNL1       -0.2727
     20 C         139.8390  142.6713  161.7593 C.3     1  UNL1        0.0721
     21 C         140.2760  143.2315  163.0803 C.3     1  UNL1        0.0191
     22 C         139.3933  143.0885  164.2846 C.3     1  UNL1        0.0224
     23 C         138.0736  142.3852  164.1679 C.3     1  UNL1        0.0191
     24 C         137.6366  141.8250  162.8469 C.3     1  UNL1        0.0721
     25 C         138.0822  141.4077  160.3215 C.3     1  UNL1        0.0721
     26 C         137.8462  139.9339  160.1730 C.3     1  UNL1        0.0173
     27 C         139.8957  139.4563  159.9060 C.3     1  UNL1        0.0000
     28 C         138.7972  138.9555  160.7962 C.3     1  UNL1        0.0013
     29 C         137.6987  138.4548  161.6864 C.3     1  UNL1        0.0000
     30 C         139.7482  137.9771  161.4194 C.3     1  UNL1        0.0000
@<TRIPOS>BOND
     1    27    28    1
     2    28    29    1
     3    28    30    1
     4    28    26    1
     5    26    25    1
     6    25    19    1
     7    19    20    1
     8    20    21    1
     9    21    22    1
    10    22    18    1
    11    18     1    1
    12     1     2   am
    13     2     3    2
    14     2     5    1
    15     5    11    1
    16    11    12   ar
    17    12    13   ar
    18    13    14   ar
    19    14    15    1
    20    14    16   ar
    21    16    17   ar
    22     5     6    1
    23     6     7    1
    24     7     8    1
    25     8     9    1
    26     9    10    1
    27    22    23    1
    28    23    24    1
    29    24    19    1
    30    10     5    1
    31    17    11   ar
    32     1     4    1
@<TRIPOS>MOLECULE
*****
 30 32 0 0 0
SMALL
GASTEIGER

@<TRIPOS>ATOM
      1 N         142.2594  139.4964  166.6338 N.am    1  UNL1       -0.3041
      2 C         140.9907  140.2967  166.6438 C.2     1  UNL1        0.2253
      3 O         139.8980  139.9826  165.6654 O.2     1  UNL1       -0.2748
      4 H         142.9765  139.7026  167.2759 H       1  UNL1        0.1494
      5 C         140.8149  141.4112  167.6323 C.3     1  UNL1        0.0875
      6 C         140.0516  140.3232  168.3279 C.3     1  UNL1        0.0127
      7 C         139.3988  140.5931  169.6511 C.3     1  UNL1        0.0008
      8 C         139.5092  141.9510  170.2788 C.3     1  UNL1        0.0000
      9 C         140.2724  143.0390  169.5832 C.3     1  UNL1        0.0008
     10 C         140.9252  142.7691  168.2600 C.3     1  UNL1        0.0127
     11 C         141.6391  142.1121  166.5934 C.ar    1  UNL1       -0.0145
     12 C         143.1238  142.2330  166.7701 C.ar    1  UNL1       -0.0015
     13 C         143.9480  142.9340  165.7312 C.ar    1  UNL1        0.0293
     14 C         143.2877  143.5140  164.5157 C.ar    1  UNL1        0.1401
     15 F         144.1120  144.2149  163.4768 F       1  UNL1       -0.2042
     16 C         141.8031  143.3931  164.3390 C.ar    1  UNL1        0.0293
     17 C         140.9788  142.6922  165.3779 C.ar    1  UNL1       -0.0015
     18 C         142.4353  138.3820  165.6454 C.3     1  UNL1        0.0894
     19 N         143.5388  139.3086  161.3823 N.3     1  UNL1       -0.2727
     20 C         144.3025  139.9393  162.5088 C.3     1  UNL1        0.0721
     21 C         143.9347  139.6304  163.9298 C.3     1  UNL1        0.0191
     22 C         142.8031  138.6909  164.2243 C.3     1  UNL1        0.0224
     23 C         142.0394  138.0602  163.0979 C.3     1  UNL1        0.0191
     24 C         142.4072  138.3691  161.6769 C.3     1  UNL1        0.0721
     25 C         143.9066  139.6175  159.9613 C.3     1  UNL1        0.0721
     26 C         143.1792  140.6969  159.2159 C.3     1  UNL1        0.0173
     27 C         144.4024  142.3623  159.6960 C.3     1  UNL1        0.0000
     28 C         142.9490  142.0306  159.8626 C.3     1  UNL1        0.0013
     29 C         141.4956  141.6990  160.0293 C.3     1  UNL1        0.0000
     30 C         142.7189  143.3644  160.5094 C.3     1  UNL1        0.0000
@<TRIPOS>BOND
     1    27    28    1
     2    28    29    1
     3    28    30    1
     4    28    26    1
     5    26    25    1
     6    25    19    1
     7    19    20    1
     8    20    21    1
     9    21    22    1
    10    22    18    1
    11    18     1    1
    12     1     2   am
    13     2     3    2
    14     2     5    1
    15     5    11    1
    16    11    12   ar
    17    12    13   ar
    18    13    14   ar
    19    14    15    1
    20    14    16   ar
    21    16    17   ar
    22     5     6    1
    23     6     7    1
    24     7     8    1
    25     8     9    1
    26     9    10    1
    27    22    23    1
    28    23    24    1
    29    24    19    1
    30    10     5    1
    31    17    11   ar
    32     1     4    1
@<TRIPOS>MOLECULE
*****
 30 32 0 0 0
SMALL
GASTEIGER

@<TRIPOS>ATOM
      1 N         139.5490  139.9154  167.0761 N.am    1  UNL1       -0.3041
      2 C         141.0396  139.9721  166.9180 C.2     1  UNL1        0.2253
      3 O         141.7303  139.0303  165.9768 O.2     1  UNL1       -0.2748
      4 H         139.0956  140.5335  167.6939 H       1  UNL1        0.1494
      5 C         141.8394  140.9706  167.7012 C.3     1  UNL1        0.0875
      6 C         141.9766  139.7711  168.5914 C.3     1  UNL1        0.0127
      7 C         142.7695  139.8662  169.8611 C.3     1  UNL1        0.0008
      8 C         143.4252  141.1608  170.2407 C.3     1  UNL1        0.0000
      9 C         143.2880  142.3603  169.3505 C.3     1  UNL1        0.0008
     10 C         142.4951  142.2652  168.0808 C.3     1  UNL1        0.0127
     11 C         141.4244  141.8233  166.5391 C.ar    1  UNL1       -0.0145
     12 C         140.2800  142.7822  166.6833 C.ar    1  UNL1       -0.0015
     13 C         139.8650  143.6349  165.5210 C.ar    1  UNL1        0.0293
     14 C         140.5945  143.5287  164.2146 C.ar    1  UNL1        0.1401
     15 F         140.1794  144.3815  163.0524 F       1  UNL1       -0.2042
     16 C         141.7388  142.5699  164.0705 C.ar    1  UNL1        0.0293
     17 C         142.1538  141.7171  165.2327 C.ar    1  UNL1       -0.0015
     18 C         138.7492  138.9170  166.2930 C.3     1  UNL1        0.0894
     19 N         137.9492  139.6083  161.9189 N.3     1  UNL1       -0.2727
     20 C         138.4345  138.2695  162.3902 C.3     1  UNL1        0.0721
     21 C         138.7012  138.0391  163.8482 C.3     1  UNL1        0.0191
     22 C         138.4825  139.1474  164.8350 C.3     1  UNL1        0.0224
     23 C         137.9972  140.4862  164.3637 C.3     1  UNL1        0.0191
     24 C         137.7305  140.7166  162.9057 C.3     1  UNL1        0.0721
     25 C         137.6825  139.8387  160.4609 C.3     1  UNL1        0.0721
     26 C         138.8008  140.2504  159.5499 C.3     1  UNL1        0.0173
     27 C         140.8114  140.2762  160.2258 C.3     1  UNL1        0.0000
     28 C         139.7622  141.3192  159.9780 C.3     1  UNL1        0.0013
     29 C         138.7130  142.3622  159.7303 C.3     1  UNL1        0.0000
     30 C         140.7236  142.3880  160.4062 C.3     1  UNL1        0.0000
@<TRIPOS>BOND
     1    27    28    1
     2    28    29    1
     3    28    30    1
     4    28    26    1
     5    26    25    1
     6    25    19    1
     7    19    20    1
     8    20    21    1
     9    21    22    1
    10    22    18    1
    11    18     1    1
    12     1     2   am
    13     2     3    2
    14     2     5    1
    15     5    11    1
    16    11    12   ar
    17    12    13   ar
    18    13    14   ar
    19    14    15    1
    20    14    16   ar
    21    16    17   ar
    22     5     6    1
    23     6     7    1
    24     7     8    1
    25     8     9    1
    26     9    10    1
    27    22    23    1
    28    23    24    1
    29    24    19    1
    30    10     5    1
    31    17    11   ar
    32     1     4    1
@<TRIPOS>MOLECULE
*****
 30 32 0 0 0
SMALL
GASTEIGER

@<TRIPOS>ATOM
      1 N         143.3410  142.0706  165.7942 N.am    1  UNL1       -0.3041
      2 C         142.5609  141.3617  166.8613 C.2     1  UNL1        0.2253
      3 O         142.5215  139.8625  166.8907 O.2     1  UNL1       -0.2748
      4 H         143.3669  143.0546  165.7748 H       1  UNL1        0.1494
      5 C         141.8200  142.1520  167.8989 C.3     1  UNL1        0.0875
      6 C         143.1561  142.0290  168.5698 C.3     1  UNL1        0.0127
      7 C         143.3766  142.6437  169.9201 C.3     1  UNL1        0.0008
      8 C         142.2612  143.3813  170.5997 C.3     1  UNL1        0.0000
      9 C         140.9252  143.5043  169.9288 C.3     1  UNL1        0.0008
     10 C         140.7047  142.8896  168.5785 C.3     1  UNL1        0.0127
     11 C         140.7414  142.0005  166.8677 C.ar    1  UNL1       -0.0145
     12 C         140.4003  143.1487  165.9649 C.ar    1  UNL1       -0.0015
     13 C         139.3215  142.9971  164.9337 C.ar    1  UNL1        0.0293
     14 C         138.5840  141.6974  164.8052 C.ar    1  UNL1        0.1401
     15 F         137.5052  141.5459  163.7740 F       1  UNL1       -0.2042
     16 C         138.9251  140.5492  165.7080 C.ar    1  UNL1        0.0293
     17 C         140.0038  140.7007  166.7393 C.ar    1  UNL1       -0.0015
     18 C         144.0819  141.2804  164.7565 C.3     1  UNL1        0.0894
     19 N         141.8174  139.2042  161.4684 N.3     1  UNL1       -0.2727
     20 C         143.0575  138.5792  162.0355 C.3     1  UNL1        0.0721
     21 C         143.8123  139.2713  163.1315 C.3     1  UNL1        0.0191
     22 C         143.3271  140.5884  163.6605 C.3     1  UNL1        0.0224
     23 C         142.0870  141.2134  163.0934 C.3     1  UNL1        0.0191
     24 C         141.3322  140.5213  161.9973 C.3     1  UNL1        0.0721
     25 C         141.0626  138.5122  160.3723 C.3     1  UNL1        0.0721
     26 C         139.6666  138.0214  160.6173 C.3     1  UNL1        0.0173
     27 C         138.1573  138.4686  162.0393 C.3     1  UNL1        0.0000
     28 C         138.5296  138.9974  160.6859 C.3     1  UNL1        0.0013
     29 C         138.9019  139.5262  159.3324 C.3     1  UNL1        0.0000
     30 C         137.3927  139.9735  160.7545 C.3     1  UNL1        0.0000
@<TRIPOS>BOND
     1    27    28    1
     2    28    29    1
     3    28    30    1
     4    28    26    1
     5    26    25    1
     6    25    19    1
     7    19    20    1
     8    20    21    1
     9    21    22    1
    10    22    18    1
    11    18     1    1
    12     1     2   am
    13     2     3    2
    14     2     5    1
    15     5    11    1
    16    11    12   ar
    17    12    13   ar
    18    13    14   ar
    19    14    15    1
    20    14    16   ar
    21    16    17   ar
    22     5     6    1
    23     6     7    1
    24     7     8    1
    25     8     9    1
    26     9    10    1
    27    22    23    1
    28    23    24    1
    29    24    19    1
    30    10     5    1
    31    17    11   ar
    32     1     4    1
@<TRIPOS>MOLECULE
*****
 30 32 0 0 0
SMALL
GASTEIGER

@<TRIPOS>ATOM
      1 N         142.7488  142.1248  166.7034 N.am    1  UNL1       -0.3041
      2 C         141.2524  142.0508  166.6303 C.2     1  UNL1        0.2253
      3 O         140.5374  142.5228  165.3991 O.2     1  UNL1       -0.2748
      4 H         143.2181  141.8150  167.5115 H       1  UNL1        0.1494
      5 C         140.4710  141.5047  167.7885 C.3     1  UNL1        0.0875
      6 C         140.9680  142.7857  168.3904 C.3     1  UNL1        0.0127
      7 C         140.6053  143.1416  169.8016 C.3     1  UNL1        0.0008
      8 C         139.7456  142.2165  170.6111 C.3     1  UNL1        0.0000
      9 C         139.2487  140.9356  170.0092 C.3     1  UNL1        0.0008
     10 C         139.6114  140.5797  168.5980 C.3     1  UNL1        0.0127
     11 C         140.2454  140.4134  166.7844 C.ar    1  UNL1       -0.0145
     12 C         138.8749  140.1866  166.2185 C.ar    1  UNL1       -0.0015
     13 C         138.6494  139.0953  165.2144 C.ar    1  UNL1        0.0293
     14 C         139.7943  138.2308  164.7763 C.ar    1  UNL1        0.1401
     15 F         139.5686  137.1395  163.7722 F       1  UNL1       -0.2042
     16 C         141.1647  138.4577  165.3422 C.ar    1  UNL1        0.0293
     17 C         141.3903  139.5490  166.3463 C.ar    1  UNL1       -0.0015
     18 C         143.5302  142.6708  165.5453 C.3     1  UNL1        0.0894
     19 N         144.0123  140.2212  161.8014 N.3     1  UNL1       -0.2727
     20 C         143.3088  141.5448  161.7462 C.3     1  UNL1        0.0721
     21 C         143.1481  142.3614  162.9942 C.3     1  UNL1        0.0191
     22 C         143.6909  141.8543  164.2973 C.3     1  UNL1        0.0224
     23 C         144.3945  140.5307  164.3525 C.3     1  UNL1        0.0191
     24 C         144.5552  139.7142  163.1045 C.3     1  UNL1        0.0721
     25 C         144.1731  139.4047  160.5534 C.3     1  UNL1        0.0721
     26 C         143.2637  138.2397  160.2971 C.3     1  UNL1        0.0173
     27 C         141.9178  137.6116  161.8116 C.3     1  UNL1        0.0000
     28 C         141.7877  138.3755  160.5273 C.3     1  UNL1        0.0013
     29 C         141.6576  139.1395  159.2430 C.3     1  UNL1        0.0000
     30 C         140.3117  138.5114  160.7576 C.3     1  UNL1        0.0000
@<TRIPOS>BOND
     1    27    28    1
     2    28    29    1
     3    28    30    1
     4    28    26    1
     5    26    25    1
     6    25    19    1
     7    19    20    1
     8    20    21    1
     9    21    22    1
    10    22    18    1
    11    18     1    1
    12     1     2   am
    13     2     3    2
    14     2     5    1
    15     5    11    1
    16    11    12   ar
    17    12    13   ar
    18    13    14   ar
    19    14    15    1
    20    14    16   ar
    21    16    17   ar
    22     5     6    1
    23     6     7    1
    24     7     8    1
    25     8     9    1
    26     9    10    1
    27    22    23    1
    28    23    24    1
    29    24    19    1
    30    10     5    1
    31    17    11   ar
    32     1     4    1
