@<TRIPOS>MOLECULE
*****
 24 26 0 0 0
SMALL
GASTEIGER

@<TRIPOS>ATOM
      1 C         139.7525  140.5416  168.1070 C.2     1  UNL1        0.2487
      2 O         139.0100  139.4632  168.8390 O.2     1  UNL1       -0.2699
      3 N         139.5685  140.7073  166.6276 N.am    1  UNL1       -0.2763
      4 C         142.0469  140.9784  169.2451 C.ar    1  UNL1       -0.0181
      5 C         142.9734  141.8910  169.9925 C.ar    1  UNL1       -0.0041
      6 C         142.5321  143.2795  170.3492 C.ar    1  UNL1       -0.0003
      7 C         141.1643  143.7554  169.9585 C.ar    1  UNL1        0.0001
      8 C         140.2378  142.8428  169.2111 C.ar    1  UNL1        0.0042
      9 C         140.6791  141.4542  168.8544 C.ar    1  UNL1        0.0496
     10 C         142.8291  139.2532  167.4670 C.3     1  UNL1        0.0047
     11 C         142.4881  139.5898  168.8884 C.3     1  UNL1        0.0225
     12 C         142.5885  138.5380  169.9530 C.3     1  UNL1        0.0047
     13 C         140.3109  141.7856  165.8956 C.3     1  UNL1        0.0927
     14 C         141.7011  141.6793  165.3422 C.3     1  UNL1        0.0383
     15 C         142.0430  142.9876  164.6930 C.3     1  UNL1        0.0704
     16 N         140.8641  143.9026  164.8451 N.3     1  UNL1       -0.2960
     17 C         139.7937  143.1597  165.5884 C.3     1  UNL1        0.0887
     18 H         140.5193  144.1786  163.9258 H       1  UNL1        0.1233
     19 C         138.6419  139.7946  165.8802 C.3     1  UNL1        0.0936
     20 C         139.1803  138.8911  164.8108 C.3     1  UNL1        0.0199
     21 C         138.5998  138.7032  163.4405 C.3     1  UNL1        0.0017
     22 C         139.4545  137.7127  162.7068 C.3     1  UNL1        0.0001
     23 C         140.5633  137.2885  163.6236 C.3     1  UNL1        0.0001
     24 C         140.3939  138.0167  164.9239 C.3     1  UNL1        0.0017
@<TRIPOS>BOND
     1    10    11    1
     2    11    12    1
     3    11     4    1
     4     4     5   ar
     5     5     6   ar
     6     6     7   ar
     7     7     8   ar
     8     8     9   ar
     9     9     1    1
    10     1     2    2
    11     1     3   am
    12     3    19    1
    13    19    20    1
    14    20    21    1
    15    21    22    1
    16    22    23    1
    17    23    24    1
    18    13     3    1
    19    13    14    1
    20    14    15    1
    21    15    16    1
    22    16    17    1
    23     9     4   ar
    24    24    20    1
    25    17    13    1
    26    16    18    1
@<TRIPOS>MOLECULE
*****
 24 26 0 0 0
SMALL
GASTEIGER

@<TRIPOS>ATOM
      1 C         142.4849  138.8520  166.3646 C.2     1  UNL1        0.2487
      2 O         143.7450  138.4037  167.0438 O.2     1  UNL1       -0.2699
      3 N         141.4611  139.6393  167.1274 N.am    1  UNL1       -0.2763
      4 C         142.9497  139.2864  163.8456 C.ar    1  UNL1       -0.0181
      5 C         142.7134  138.9472  162.4038 C.ar    1  UNL1       -0.0041
      6 C         141.7761  137.8344  162.0389 C.ar    1  UNL1       -0.0003
      7 C         141.0751  137.0608  163.1159 C.ar    1  UNL1        0.0001
      8 C         141.3114  137.4000  164.5578 C.ar    1  UNL1        0.0042
      9 C         142.2487  138.5128  164.9227 C.ar    1  UNL1        0.0496
     10 C         145.3635  140.1439  164.2795 C.3     1  UNL1        0.0047
     11 C         143.8870  140.3992  164.2105 C.3     1  UNL1        0.0225
     12 C         143.3479  141.7673  164.5063 C.3     1  UNL1        0.0047
     13 C         140.2010  140.0876  166.4482 C.3     1  UNL1        0.0927
     14 C         140.0263  141.3511  165.6590 C.3     1  UNL1        0.0383
     15 C         138.6117  141.3954  165.1620 C.3     1  UNL1        0.0704
     16 N         137.9121  140.1593  165.6442 N.3     1  UNL1       -0.2960
     17 C         138.8944  139.3510  166.4391 C.3     1  UNL1        0.0887
     18 H         137.5812  139.6156  164.8471 H       1  UNL1        0.1233
     19 C         141.6974  139.9785  168.5694 C.3     1  UNL1        0.0936
     20 C         141.0979  141.2224  169.1552 C.3     1  UNL1        0.0199
     21 C         141.5609  142.6269  168.9045 C.3     1  UNL1        0.0017
     22 C         140.6792  143.5527  169.6890 C.3     1  UNL1        0.0001
     23 C         139.6712  142.7203  170.4246 C.3     1  UNL1        0.0001
     24 C         139.9299  141.2801  170.0947 C.3     1  UNL1        0.0017
@<TRIPOS>BOND
     1    10    11    1
     2    11    12    1
     3    11     4    1
     4     4     5   ar
     5     5     6   ar
     6     6     7   ar
     7     7     8   ar
     8     8     9   ar
     9     9     1    1
    10     1     2    2
    11     1     3   am
    12     3    19    1
    13    19    20    1
    14    20    21    1
    15    21    22    1
    16    22    23    1
    17    23    24    1
    18    13     3    1
    19    13    14    1
    20    14    15    1
    21    15    16    1
    22    16    17    1
    23     9     4   ar
    24    24    20    1
    25    17    13    1
    26    16    18    1
@<TRIPOS>MOLECULE
*****
 24 26 0 0 0
SMALL
GASTEIGER

@<TRIPOS>ATOM
      1 C         141.2920  140.8093  163.4701 C.2     1  UNL1        0.2487
      2 O         142.1260  139.6194  163.8422 O.2     1  UNL1       -0.2699
      3 N         139.8231  140.6453  163.2145 N.am    1  UNL1       -0.2763
      4 C         142.2166  142.9647  164.5880 C.ar    1  UNL1       -0.0181
      5 C         142.8516  144.3186  164.4714 C.ar    1  UNL1       -0.0041
      6 C         143.1970  144.8712  163.1204 C.ar    1  UNL1       -0.0003
      7 C         142.9075  144.0698  161.8859 C.ar    1  UNL1        0.0001
      8 C         142.2725  142.7159  162.0025 C.ar    1  UNL1        0.0042
      9 C         141.9271  142.1633  163.3536 C.ar    1  UNL1        0.0496
     10 C         142.8711  141.5817  166.6878 C.3     1  UNL1        0.0047
     11 C         141.8712  142.4121  165.9391 C.3     1  UNL1        0.0225
     12 C         140.5258  142.6899  166.5414 C.3     1  UNL1        0.0047
     13 C         138.9892  141.8353  162.8424 C.3     1  UNL1        0.0927
     14 C         138.4685  142.8773  163.7874 C.3     1  UNL1        0.0383
     15 C         137.6870  143.8782  162.9890 C.3     1  UNL1        0.0704
     16 N         137.7247  143.4548  161.5505 N.3     1  UNL1       -0.2960
     17 C         138.5295  142.1922  161.4599 C.3     1  UNL1        0.0887
     18 H         138.1604  144.1843  160.9862 H       1  UNL1        0.1233
     19 C         139.1881  139.2913  163.3311 C.3     1  UNL1        0.0936
     20 C         138.6885  138.8092  164.6607 C.3     1  UNL1        0.0199
     21 C         138.1772  139.6720  165.7761 C.3     1  UNL1        0.0017
     22 C         137.7852  138.7757  166.9131 C.3     1  UNL1        0.0001
     23 C         138.0542  137.3588  166.5004 C.3     1  UNL1        0.0001
     24 C         138.6124  137.3796  165.1083 C.3     1  UNL1        0.0017
@<TRIPOS>BOND
     1    10    11    1
     2    11    12    1
     3    11     4    1
     4     4     5   ar
     5     5     6   ar
     6     6     7   ar
     7     7     8   ar
     8     8     9   ar
     9     9     1    1
    10     1     2    2
    11     1     3   am
    12     3    19    1
    13    19    20    1
    14    20    21    1
    15    21    22    1
    16    22    23    1
    17    23    24    1
    18    13     3    1
    19    13    14    1
    20    14    15    1
    21    15    16    1
    22    16    17    1
    23     9     4   ar
    24    24    20    1
    25    17    13    1
    26    16    18    1
@<TRIPOS>MOLECULE
*****
 24 26 0 0 0
SMALL
GASTEIGER

@<TRIPOS>ATOM
      1 C         140.5479  141.1682  165.8862 C.2     1  UNL1        0.2487
      2 O         141.6326  141.4291  166.8889 O.2     1  UNL1       -0.2699
      3 N         140.1332  142.2484  164.9317 N.am    1  UNL1       -0.2763
      4 C         140.4946  138.7083  165.0518 C.ar    1  UNL1       -0.0181
      5 C         139.8247  137.3671  165.0037 C.ar    1  UNL1       -0.0041
      6 C         138.5379  137.1446  165.7418 C.ar    1  UNL1       -0.0003
      7 C         137.9212  138.2632  166.5280 C.ar    1  UNL1        0.0001
      8 C         138.5912  139.6044  166.5762 C.ar    1  UNL1        0.0042
      9 C         139.8779  139.8269  165.8381 C.ar    1  UNL1        0.0496
     10 C         141.7577  139.3087  162.8623 C.3     1  UNL1        0.0047
     11 C         141.7814  138.9308  164.3137 C.3     1  UNL1        0.0225
     12 C         143.0917  138.7754  165.0270 C.3     1  UNL1        0.0047
     13 C         139.0485  141.9875  163.9290 C.3     1  UNL1        0.0927
     14 C         139.2486  141.6559  162.4799 C.3     1  UNL1        0.0383
     15 C         137.8971  141.4758  161.8547 C.3     1  UNL1        0.0704
     16 N         136.8617  141.6961  162.9174 N.3     1  UNL1       -0.2960
     17 C         137.5733  142.0123  164.1994 C.3     1  UNL1        0.0887
     18 H         136.2991  140.8531  163.0326 H       1  UNL1        0.1233
     19 C         140.8032  143.5897  164.9799 C.3     1  UNL1        0.0936
     20 C         142.0799  143.8178  164.2264 C.3     1  UNL1        0.0199
     21 C         143.0193  142.7539  163.7408 C.3     1  UNL1        0.0017
     22 C         144.1614  143.4284  163.0404 C.3     1  UNL1        0.0001
     23 C         143.9279  144.9092  163.0931 C.3     1  UNL1        0.0001
     24 C         142.6415  145.1498  163.8260 C.3     1  UNL1        0.0017
@<TRIPOS>BOND
     1    10    11    1
     2    11    12    1
     3    11     4    1
     4     4     5   ar
     5     5     6   ar
     6     6     7   ar
     7     7     8   ar
     8     8     9   ar
     9     9     1    1
    10     1     2    2
    11     1     3   am
    12     3    19    1
    13    19    20    1
    14    20    21    1
    15    21    22    1
    16    22    23    1
    17    23    24    1
    18    13     3    1
    19    13    14    1
    20    14    15    1
    21    15    16    1
    22    16    17    1
    23     9     4   ar
    24    24    20    1
    25    17    13    1
    26    16    18    1
@<TRIPOS>MOLECULE
*****
 24 26 0 0 0
SMALL
GASTEIGER

@<TRIPOS>ATOM
      1 C         140.3642  140.2422  166.7968 C.2     1  UNL1        0.2487
      2 O         140.4052  139.7282  168.2054 O.2     1  UNL1       -0.2699
      3 N         140.3665  141.7195  166.5372 N.am    1  UNL1       -0.2763
      4 C         141.5947  138.7072  165.0999 C.ar    1  UNL1       -0.0181
      5 C         141.5512  137.7438  163.9510 C.ar    1  UNL1       -0.0041
      6 C         140.2338  137.3521  163.3500 C.ar    1  UNL1       -0.0003
      7 C         138.9599  137.9238  163.8980 C.ar    1  UNL1        0.0001
      8 C         139.0034  138.8871  165.0469 C.ar    1  UNL1        0.0042
      9 C         140.3207  139.2788  165.6478 C.ar    1  UNL1        0.0496
     10 C         143.7181  140.2040  165.0854 C.3     1  UNL1        0.0047
     11 C         142.9120  139.0988  165.7008 C.3     1  UNL1        0.0225
     12 C         143.4233  138.3853  166.9171 C.3     1  UNL1        0.0047
     13 C         140.3254  142.2335  165.1286 C.3     1  UNL1        0.0927
     14 C         141.5112  142.6276  164.2989 C.3     1  UNL1        0.0383
     15 C         141.0100  143.0814  162.9599 C.3     1  UNL1        0.0704
     16 N         139.5143  142.9678  162.9621 N.3     1  UNL1       -0.2960
     17 C         139.0912  142.4438  164.3024 C.3     1  UNL1        0.0887
     18 H         139.2149  142.3250  162.2289 H       1  UNL1        0.1233
     19 C         140.4099  142.6829  167.6862 C.3     1  UNL1        0.0936
     20 C         141.5973  142.7045  168.6023 C.3     1  UNL1        0.0199
     21 C         142.9742  142.2088  168.2730 C.3     1  UNL1        0.0017
     22 C         143.8443  142.4236  169.4758 C.3     1  UNL1        0.0001
     23 C         143.0051  143.0521  170.5486 C.3     1  UNL1        0.0001
     24 C         141.6165  143.2257  170.0087 C.3     1  UNL1        0.0017
@<TRIPOS>BOND
     1    10    11    1
     2    11    12    1
     3    11     4    1
     4     4     5   ar
     5     5     6   ar
     6     6     7   ar
     7     7     8   ar
     8     8     9   ar
     9     9     1    1
    10     1     2    2
    11     1     3   am
    12     3    19    1
    13    19    20    1
    14    20    21    1
    15    21    22    1
    16    22    23    1
    17    23    24    1
    18    13     3    1
    19    13    14    1
    20    14    15    1
    21    15    16    1
    22    16    17    1
    23     9     4   ar
    24    24    20    1
    25    17    13    1
    26    16    18    1
@<TRIPOS>MOLECULE
*****
 24 26 0 0 0
SMALL
GASTEIGER

@<TRIPOS>ATOM
      1 C         140.3853  141.5607  162.9941 C.2     1  UNL1        0.2487
      2 O         138.9552  141.8886  162.6821 O.2     1  UNL1       -0.2699
      3 N         140.7793  140.1482  163.3095 N.am    1  UNL1       -0.2763
      4 C         141.4725  143.6375  164.1144 C.ar    1  UNL1       -0.0181
      5 C         142.5086  144.7221  164.1108 C.ar    1  UNL1       -0.0041
      6 C         143.4937  144.8146  162.9834 C.ar    1  UNL1       -0.0003
      7 C         143.4426  143.8225  161.8595 C.ar    1  UNL1        0.0001
      8 C         142.4065  142.7379  161.8631 C.ar    1  UNL1        0.0042
      9 C         141.4215  142.6454  162.9905 C.ar    1  UNL1        0.0496
     10 C         140.7650  142.6436  166.4082 C.3     1  UNL1        0.0047
     11 C         140.4874  143.5450  165.2418 C.3     1  UNL1        0.0225
     12 C         139.2249  144.3539  165.2029 C.3     1  UNL1        0.0047
     13 C         142.2094  139.8203  163.6215 C.3     1  UNL1        0.0927
     14 C         142.8701  139.9440  164.9624 C.3     1  UNL1        0.0383
     15 C         144.2989  139.5113  164.8169 C.3     1  UNL1        0.0704
     16 N         144.5213  139.1201  163.3860 N.3     1  UNL1       -0.2960
     17 C         143.2300  139.3111  162.6472 C.3     1  UNL1        0.0887
     18 H         144.8080  138.1426  163.3349 H       1  UNL1        0.1233
     19 C         139.7432  139.0635  163.3131 C.3     1  UNL1        0.0936
     20 C         139.0331  138.7088  164.5858 C.3     1  UNL1        0.0199
     21 C         138.7973  137.3221  165.1068 C.3     1  UNL1        0.0017
     22 C         138.0526  137.4347  166.4040 C.3     1  UNL1        0.0001
     23 C         137.8282  138.8910  166.6847 C.3     1  UNL1        0.0001
     24 C         138.4341  139.6784  165.5610 C.3     1  UNL1        0.0017
@<TRIPOS>BOND
     1    10    11    1
     2    11    12    1
     3    11     4    1
     4     4     5   ar
     5     5     6   ar
     6     6     7   ar
     7     7     8   ar
     8     8     9   ar
     9     9     1    1
    10     1     2    2
    11     1     3   am
    12     3    19    1
    13    19    20    1
    14    20    21    1
    15    21    22    1
    16    22    23    1
    17    23    24    1
    18    13     3    1
    19    13    14    1
    20    14    15    1
    21    15    16    1
    22    16    17    1
    23     9     4   ar
    24    24    20    1
    25    17    13    1
    26    16    18    1
@<TRIPOS>MOLECULE
*****
 24 26 0 0 0
SMALL
GASTEIGER

@<TRIPOS>ATOM
      1 C         141.7928  140.3095  166.5418 C.2     1  UNL1        0.2487
      2 O         142.9757  139.5952  167.1254 O.2     1  UNL1       -0.2699
      3 N         141.9827  141.6137  165.8256 N.am    1  UNL1       -0.2763
      4 C         139.6587  139.8725  167.9577 C.ar    1  UNL1       -0.0181
      5 C         138.2860  139.2825  168.0902 C.ar    1  UNL1       -0.0041
      6 C         137.6747  138.5395  166.9395 C.ar    1  UNL1       -0.0003
      7 C         138.4361  138.3865  165.6562 C.ar    1  UNL1        0.0001
      8 C         139.8088  138.9765  165.5236 C.ar    1  UNL1        0.0042
      9 C         140.4201  139.7195  166.6744 C.ar    1  UNL1        0.0496
     10 C         141.0605  139.8737  170.1451 C.3     1  UNL1        0.0047
     11 C         140.2700  140.6155  169.1084 C.3     1  UNL1        0.0225
     12 C         140.0908  142.1004  169.2225 C.3     1  UNL1        0.0047
     13 C         140.7998  142.3279  165.2420 C.3     1  UNL1        0.0927
     14 C         139.9561  143.3528  165.9403 C.3     1  UNL1        0.0383
     15 C         138.8878  143.8011  164.9875 C.3     1  UNL1        0.0704
     16 N         139.0713  143.0532  163.7002 N.3     1  UNL1       -0.2960
     17 C         140.2530  142.1428  163.8576 C.3     1  UNL1        0.0887
     18 H         139.2399  143.7107  162.9389 H       1  UNL1        0.1233
     19 C         143.3555  142.2037  165.6930 C.3     1  UNL1        0.0936
     20 C         143.7140  143.0027  164.4753 C.3     1  UNL1        0.0199
     21 C         144.2298  142.4512  163.1792 C.3     1  UNL1        0.0017
     22 C         144.4542  143.6013  162.2427 C.3     1  UNL1        0.0001
     23 C         144.0770  144.8635  162.9600 C.3     1  UNL1        0.0001
     24 C         143.6195  144.4936  164.3398 C.3     1  UNL1        0.0017
@<TRIPOS>BOND
     1    10    11    1
     2    11    12    1
     3    11     4    1
     4     4     5   ar
     5     5     6   ar
     6     6     7   ar
     7     7     8   ar
     8     8     9   ar
     9     9     1    1
    10     1     2    2
    11     1     3   am
    12     3    19    1
    13    19    20    1
    14    20    21    1
    15    21    22    1
    16    22    23    1
    17    23    24    1
    18    13     3    1
    19    13    14    1
    20    14    15    1
    21    15    16    1
    22    16    17    1
    23     9     4   ar
    24    24    20    1
    25    17    13    1
    26    16    18    1
@<TRIPOS>MOLECULE
*****
 24 26 0 0 0
SMALL
GASTEIGER

@<TRIPOS>ATOM
      1 C         141.0737  139.2494  164.5585 C.2     1  UNL1        0.2487
      2 O         142.4265  138.6571  164.8217 O.2     1  UNL1       -0.2699
      3 N         140.8606  140.1317  163.3643 N.am    1  UNL1       -0.2763
      4 C         139.7337  139.8011  166.7150 C.ar    1  UNL1       -0.0181
      5 C         138.5940  139.5111  167.6460 C.ar    1  UNL1       -0.0041
      6 C         137.6546  138.3793  167.3518 C.ar    1  UNL1       -0.0003
      7 C         137.8548  137.5376  166.1265 C.ar    1  UNL1        0.0001
      8 C         138.9945  137.8277  165.1954 C.ar    1  UNL1        0.0042
      9 C         139.9340  138.9594  165.4897 C.ar    1  UNL1        0.0496
     10 C         141.9925  140.6602  167.6687 C.3     1  UNL1        0.0047
     11 C         140.6732  140.9328  167.0092 C.3     1  UNL1        0.0225
     12 C         140.2933  142.3372  166.6439 C.3     1  UNL1        0.0047
     13 C         139.5079  140.7240  163.1012 C.3     1  UNL1        0.0927
     14 C         139.0718  142.1160  163.4503 C.3     1  UNL1        0.0383
     15 C         137.6481  142.2806  163.0076 C.3     1  UNL1        0.0704
     16 N         137.2042  140.9902  162.3848 N.3     1  UNL1       -0.2960
     17 C         138.3537  140.0282  162.4427 C.3     1  UNL1        0.0887
     18 H         136.9344  141.1491  161.4141 H       1  UNL1        0.1233
     19 C         142.0004  140.4217  162.4332 C.3     1  UNL1        0.0936
     20 C         143.2475  141.0722  162.9541 C.3     1  UNL1        0.0199
     21 C         143.3148  142.1130  164.0321 C.3     1  UNL1        0.0017
     22 C         144.7552  142.4802  164.2328 C.3     1  UNL1        0.0001
     23 C         145.5783  141.6662  163.2787 C.3     1  UNL1        0.0001
     24 C         144.6464  140.7961  162.4885 C.3     1  UNL1        0.0017
@<TRIPOS>BOND
     1    10    11    1
     2    11    12    1
     3    11     4    1
     4     4     5   ar
     5     5     6   ar
     6     6     7   ar
     7     7     8   ar
     8     8     9   ar
     9     9     1    1
    10     1     2    2
    11     1     3   am
    12     3    19    1
    13    19    20    1
    14    20    21    1
    15    21    22    1
    16    22    23    1
    17    23    24    1
    18    13     3    1
    19    13    14    1
    20    14    15    1
    21    15    16    1
    22    16    17    1
    23     9     4   ar
    24    24    20    1
    25    17    13    1
    26    16    18    1
@<TRIPOS>MOLECULE
*****
 24 26 0 0 0
SMALL
GASTEIGER

@<TRIPOS>ATOM
      1 C         141.5327  140.8403  164.0431 C.2     1  UNL1        0.2487
      2 O         142.5032  139.6976  164.0919 O.2     1  UNL1       -0.2699
      3 N         141.7638  142.0574  164.8888 N.am    1  UNL1       -0.2763
      4 C         139.1519  139.9276  163.5443 C.ar    1  UNL1       -0.0181
      5 C         137.9502  139.8532  162.6496 C.ar    1  UNL1       -0.0041
      6 C         137.9277  140.6172  161.3590 C.ar    1  UNL1       -0.0003
      7 C         139.1067  141.4556  160.9630 C.ar    1  UNL1        0.0001
      8 C         140.3084  141.5300  161.8577 C.ar    1  UNL1        0.0042
      9 C         140.3309  140.7659  163.1484 C.ar    1  UNL1        0.0496
     10 C         138.7352  139.8265  166.1068 C.3     1  UNL1        0.0047
     11 C         139.1744  139.1635  164.8350 C.3     1  UNL1        0.0225
     12 C         139.6361  137.7365  164.8538 C.3     1  UNL1        0.0047
     13 C         140.7934  143.2001  164.8399 C.3     1  UNL1        0.0927
     14 C         139.5386  143.3265  165.6520 C.3     1  UNL1        0.0383
     15 C         138.8770  144.6216  165.2844 C.3     1  UNL1        0.0704
     16 N         139.7228  145.2955  164.2450 N.3     1  UNL1       -0.2960
     17 C         140.9072  144.4170  163.9703 C.3     1  UNL1        0.0887
     18 H         140.0372  146.2026  164.5895 H       1  UNL1        0.1233
     19 C         142.9656  142.1318  165.7835 C.3     1  UNL1        0.0936
     20 C         142.9029  141.5679  167.1720 C.3     1  UNL1        0.0199
     21 C         143.2414  142.2997  168.4369 C.3     1  UNL1        0.0017
     22 C         143.0384  141.3574  169.5862 C.3     1  UNL1        0.0001
     23 C         142.5744  140.0431  169.0315 C.3     1  UNL1        0.0001
     24 C         142.4907  140.1733  167.5395 C.3     1  UNL1        0.0017
@<TRIPOS>BOND
     1    10    11    1
     2    11    12    1
     3    11     4    1
     4     4     5   ar
     5     5     6   ar
     6     6     7   ar
     7     7     8   ar
     8     8     9   ar
     9     9     1    1
    10     1     2    2
    11     1     3   am
    12     3    19    1
    13    19    20    1
    14    20    21    1
    15    21    22    1
    16    22    23    1
    17    23    24    1
    18    13     3    1
    19    13    14    1
    20    14    15    1
    21    15    16    1
    22    16    17    1
    23     9     4   ar
    24    24    20    1
    25    17    13    1
    26    16    18    1
