@<TRIPOS>MOLECULE
*****
 36 39 0 0 0
SMALL
GASTEIGER

@<TRIPOS>ATOM
      1 C         140.9744  140.1232  165.1313 C.2     1  UNL1       -0.0040
      2 C         142.3348  140.0817  165.7618 C.2     1  UNL1       -0.0221
      3 C         139.8267  139.4042  165.7760 C.ar    1  UNL1       -0.0001
      4 C         139.1699  139.9810  166.9951 C.ar    1  UNL1        0.0031
      5 C         138.0222  139.2619  167.6398 C.ar    1  UNL1        0.0366
      6 C         137.5313  137.9660  167.0656 C.ar    1  UNL1        0.1337
      7 O         136.3835  137.2470  167.7104 O.3     1  UNL1       -0.5055
      8 C         138.1880  137.3892  165.8466 C.ar    1  UNL1        0.0366
      9 C         139.3358  138.1083  165.2018 C.ar    1  UNL1        0.0031
     10 H         135.9733  137.6073  168.4718 H       1  UNL1        0.2922
     11 C         140.3362  142.4051  161.3056 C.ar    1  UNL1       -0.0224
     12 C         140.1236  143.0821  162.6271 C.ar    1  UNL1       -0.0043
     13 C         140.3363  142.3215  163.9023 C.ar    1  UNL1       -0.0003
     14 C         140.7617  140.8839  163.8561 C.ar    1  UNL1       -0.0003
     15 C         140.9743  140.2068  162.5346 C.ar    1  UNL1       -0.0003
     16 C         140.7616  140.9674  161.2594 C.ar    1  UNL1       -0.0043
     17 N         139.6981  144.6870  157.4799 N.3     1  UNL1       -0.2739
     18 C         140.4010  145.3388  158.6336 C.3     1  UNL1        0.0724
     19 C         140.6137  144.5781  159.9089 C.3     1  UNL1        0.0217
     20 C         140.1235  143.1657  160.0304 C.3     1  UNL1        0.0251
     21 C         139.4207  142.5139  158.8767 C.3     1  UNL1        0.0217
     22 C         139.2080  143.2746  157.6014 C.3     1  UNL1        0.0724
     23 C         138.2879  145.1575  155.3492 C.3     1  UNL1        0.0173
     24 C         139.4854  145.4476  156.2047 C.3     1  UNL1        0.0576
     25 C         140.4701  146.4983  155.7849 C.3     1  UNL1        0.0173
     26 C         143.4825  140.8008  165.1171 C.ar    1  UNL1       -0.0040
     27 C         143.7300  142.2475  165.4262 C.ar    1  UNL1       -0.0003
     28 C         144.8777  142.9666  164.7815 C.ar    1  UNL1       -0.0000
     29 C         145.7780  142.2389  163.8276 C.ar    1  UNL1       -0.0000
     30 C         145.5305  140.7920  163.5184 C.ar    1  UNL1       -0.0000
     31 C         144.3828  140.0730  164.1632 C.ar    1  UNL1       -0.0003
     32 C         142.5475  139.3211  167.0370 C.3     1  UNL1        0.0289
     33 C         142.6485  140.0561  168.3408 C.3     1  UNL1        0.0364
     34 C         142.1240  139.4284  169.5981 C.3     1  UNL1        0.1375
     35 O         142.9333  138.3848  170.3095 O.3     1  UNL1       -0.3820
     36 H         143.0046  137.5948  169.7512 H       1  UNL1        0.2104
@<TRIPOS>BOND
     1    23    24    1
     2    24    25    1
     3    24    17    1
     4    17    18    1
     5    18    19    1
     6    19    20    1
     7    20    11    1
     8    11    12   ar
     9    12    13   ar
    10    13    14   ar
    11    14     1    1
    12     1     2    2
    13     2    32    1
    14    32    33    1
    15    33    34    1
    16    34    35    1
    17     2    26    1
    18    26    27   ar
    19    27    28   ar
    20    28    29   ar
    21    29    30   ar
    22    30    31   ar
    23     1     3    1
    24     3     4   ar
    25     4     5   ar
    26     5     6   ar
    27     6     7    1
    28     6     8   ar
    29     8     9   ar
    30    14    15   ar
    31    15    16   ar
    32    20    21    1
    33    21    22    1
    34    22    17    1
    35    16    11   ar
    36    31    26   ar
    37     9     3   ar
    38    35    36    1
    39     7    10    1
@<TRIPOS>MOLECULE
*****
 36 39 0 0 0
SMALL
GASTEIGER

@<TRIPOS>ATOM
      1 C         141.5688  141.5666  167.5701 C.2     1  UNL1       -0.0040
      2 C         140.9564  140.2250  167.8438 C.2     1  UNL1       -0.0221
      3 C         142.2473  142.3208  168.6750 C.ar    1  UNL1       -0.0001
      4 C         141.4370  143.1599  169.6181 C.ar    1  UNL1        0.0031
      5 C         142.1155  143.9141  170.7229 C.ar    1  UNL1        0.0366
      6 C         143.6044  143.8292  170.8847 C.ar    1  UNL1        0.1337
      7 O         144.2829  144.5835  171.9897 O.3     1  UNL1       -0.5055
      8 C         144.4147  142.9902  169.9417 C.ar    1  UNL1        0.0366
      9 C         143.7361  142.2360  168.8368 C.ar    1  UNL1        0.0031
     10 H         143.7767  145.1076  172.5788 H       1  UNL1        0.2922
     11 C         141.3702  143.3290  163.4343 C.ar    1  UNL1       -0.0224
     12 C         142.6083  142.6125  163.8856 C.ar    1  UNL1       -0.0043
     13 C         142.6745  142.0251  165.2642 C.ar    1  UNL1       -0.0003
     14 C         141.5026  142.1541  166.1915 C.ar    1  UNL1       -0.0003
     15 C         140.2645  142.8706  165.7402 C.ar    1  UNL1       -0.0003
     16 C         140.1983  143.4580  164.3616 C.ar    1  UNL1       -0.0043
     17 N         141.1717  145.0914  159.2986 N.3     1  UNL1       -0.2739
     18 C         142.1464  143.9916  159.5992 C.3     1  UNL1        0.0724
     19 C         142.2125  143.4042  160.9778 C.3     1  UNL1        0.0217
     20 C         141.3040  143.9165  162.0557 C.3     1  UNL1        0.0251
     21 C         140.3293  145.0162  161.7551 C.3     1  UNL1        0.0217
     22 C         140.2631  145.6037  160.3765 C.3     1  UNL1        0.0724
     23 C         142.2720  145.5375  156.9877 C.3     1  UNL1        0.0173
     24 C         141.1055  145.6789  157.9200 C.3     1  UNL1        0.0576
     25 C         139.8728  146.4077  157.4737 C.3     1  UNL1        0.0173
     26 C         140.2778  139.4707  166.7389 C.ar    1  UNL1       -0.0040
     27 C         141.0965  138.7285  165.7246 C.ar    1  UNL1       -0.0003
     28 C         140.4179  137.9743  164.6197 C.ar    1  UNL1       -0.0000
     29 C         138.9207  137.9623  164.5293 C.ar    1  UNL1       -0.0000
     30 C         138.1020  138.7045  165.5437 C.ar    1  UNL1       -0.0000
     31 C         138.7806  139.4587  166.6485 C.ar    1  UNL1       -0.0003
     32 C         141.0226  139.6375  169.2224 C.3     1  UNL1        0.0289
     33 C         142.2914  138.9999  169.7058 C.3     1  UNL1        0.0364
     34 C         143.0295  139.5881  170.8718 C.3     1  UNL1        0.1375
     35 O         142.3159  140.4932  171.8317 O.3     1  UNL1       -0.3820
     36 H         142.0570  141.3090  171.3753 H       1  UNL1        0.2104
@<TRIPOS>BOND
     1    23    24    1
     2    24    25    1
     3    24    17    1
     4    17    18    1
     5    18    19    1
     6    19    20    1
     7    20    11    1
     8    11    12   ar
     9    12    13   ar
    10    13    14   ar
    11    14     1    1
    12     1     2    2
    13     2    32    1
    14    32    33    1
    15    33    34    1
    16    34    35    1
    17     2    26    1
    18    26    27   ar
    19    27    28   ar
    20    28    29   ar
    21    29    30   ar
    22    30    31   ar
    23     1     3    1
    24     3     4   ar
    25     4     5   ar
    26     5     6   ar
    27     6     7    1
    28     6     8   ar
    29     8     9   ar
    30    14    15   ar
    31    15    16   ar
    32    20    21    1
    33    21    22    1
    34    22    17    1
    35    16    11   ar
    36    31    26   ar
    37     9     3   ar
    38    35    36    1
    39     7    10    1
@<TRIPOS>MOLECULE
*****
 36 39 0 0 0
SMALL
GASTEIGER

@<TRIPOS>ATOM
      1 C         141.6430  141.4306  167.3875 C.2     1  UNL1       -0.0040
      2 C         141.1293  140.0395  167.6125 C.2     1  UNL1       -0.0221
      3 C         142.2421  142.2021  168.5258 C.ar    1  UNL1       -0.0001
      4 C         143.7074  142.0824  168.8240 C.ar    1  UNL1        0.0031
      5 C         144.3065  142.8539  169.9623 C.ar    1  UNL1        0.0366
      6 C         143.4405  143.7450  170.8025 C.ar    1  UNL1        0.1337
      7 O         144.0398  144.5164  171.9409 O.3     1  UNL1       -0.5055
      8 C         141.9754  143.8646  170.5044 C.ar    1  UNL1        0.0366
      9 C         141.3761  143.0932  169.3660 C.ar    1  UNL1        0.0031
     10 H         144.9550  144.4417  172.1271 H       1  UNL1        0.2922
     11 C         141.3866  143.2899  163.2976 C.ar    1  UNL1       -0.0224
     12 C         140.2475  143.4392  164.2620 C.ar    1  UNL1       -0.0043
     13 C         140.3330  142.8194  165.6253 C.ar    1  UNL1       -0.0003
     14 C         141.5575  142.0504  166.0242 C.ar    1  UNL1       -0.0003
     15 C         142.6965  141.9011  165.0597 C.ar    1  UNL1       -0.0003
     16 C         142.6111  142.5209  163.6964 C.ar    1  UNL1       -0.0043
     17 N         141.1302  145.1492  159.2076 N.3     1  UNL1       -0.2739
     18 C         140.2517  145.6499  160.3155 C.3     1  UNL1        0.0724
     19 C         140.3371  145.0301  161.6788 C.3     1  UNL1        0.0217
     20 C         141.3011  143.9097  161.9343 C.3     1  UNL1        0.0251
     21 C         142.1796  143.4089  160.8264 C.3     1  UNL1        0.0217
     22 C         142.0941  144.0287  159.4630 C.3     1  UNL1        0.0724
     23 C         139.7814  146.4498  157.4078 C.3     1  UNL1        0.0173
     24 C         141.0447  145.7689  157.8443 C.3     1  UNL1        0.0576
     25 C         142.2225  145.7078  156.9175 C.3     1  UNL1        0.0173
     26 C         140.5301  139.2679  166.4741 C.ar    1  UNL1       -0.0040
     27 C         139.0458  139.2816  166.2578 C.ar    1  UNL1       -0.0003
     28 C         138.4466  138.5101  165.1194 C.ar    1  UNL1       -0.0000
     29 C         139.3317  137.7249  164.1974 C.ar    1  UNL1       -0.0000
     30 C         140.8160  137.7113  164.4138 C.ar    1  UNL1       -0.0000
     31 C         141.4152  138.4828  165.5521 C.ar    1  UNL1       -0.0003
     32 C         141.2147  139.4197  168.9758 C.3     1  UNL1        0.0289
     33 C         140.2908  139.8755  170.0661 C.3     1  UNL1        0.0364
     34 C         138.8863  140.2860  169.7361 C.3     1  UNL1        0.1375
     35 O         137.7447  139.7962  170.5768 O.3     1  UNL1       -0.3820
     36 H         137.6601  138.8348  170.4787 H       1  UNL1        0.2104
@<TRIPOS>BOND
     1    23    24    1
     2    24    25    1
     3    24    17    1
     4    17    18    1
     5    18    19    1
     6    19    20    1
     7    20    11    1
     8    11    12   ar
     9    12    13   ar
    10    13    14   ar
    11    14     1    1
    12     1     2    2
    13     2    32    1
    14    32    33    1
    15    33    34    1
    16    34    35    1
    17     2    26    1
    18    26    27   ar
    19    27    28   ar
    20    28    29   ar
    21    29    30   ar
    22    30    31   ar
    23     1     3    1
    24     3     4   ar
    25     4     5   ar
    26     5     6   ar
    27     6     7    1
    28     6     8   ar
    29     8     9   ar
    30    14    15   ar
    31    15    16   ar
    32    20    21    1
    33    21    22    1
    34    22    17    1
    35    16    11   ar
    36    31    26   ar
    37     9     3   ar
    38    35    36    1
    39     7    10    1
@<TRIPOS>MOLECULE
*****
 36 39 0 0 0
SMALL
GASTEIGER

@<TRIPOS>ATOM
      1 C         141.1202  140.4450  165.2140 C.2     1  UNL1       -0.0040
      2 C         139.7102  139.9335  165.2274 C.2     1  UNL1       -0.0221
      3 C         141.8238  140.7385  166.5057 C.ar    1  UNL1       -0.0001
      4 C         142.2864  142.1331  166.8078 C.ar    1  UNL1        0.0031
      5 C         142.9901  142.4265  168.0996 C.ar    1  UNL1        0.0366
      6 C         143.2312  141.3255  169.0893 C.ar    1  UNL1        0.1337
      7 O         143.9348  141.6191  170.3811 O.3     1  UNL1       -0.5055
      8 C         142.7686  139.9310  168.7873 C.ar    1  UNL1        0.0366
      9 C         142.0649  139.6374  167.4955 C.ar    1  UNL1        0.0031
     10 H         144.2238  142.4902  170.5698 H       1  UNL1        0.2922
     11 C         143.2394  141.0987  161.2984 C.ar    1  UNL1       -0.0224
     12 C         142.3235  142.1554  161.8411 C.ar    1  UNL1       -0.0043
     13 C         141.6171  141.9375  163.1463 C.ar    1  UNL1       -0.0003
     14 C         141.8266  140.6629  163.9088 C.ar    1  UNL1       -0.0003
     15 C         142.7425  139.6062  163.3661 C.ar    1  UNL1       -0.0003
     16 C         143.4488  139.8241  162.0609 C.ar    1  UNL1       -0.0043
     17 N         145.3585  141.7525  157.3828 N.3     1  UNL1       -0.2739
     18 C         144.4879  140.5458  157.5721 C.3     1  UNL1        0.0724
     19 C         143.7815  140.3279  158.8773 C.3     1  UNL1        0.0217
     20 C         143.9457  141.3166  159.9932 C.3     1  UNL1        0.0251
     21 C         144.8164  142.5233  159.8039 C.3     1  UNL1        0.0217
     22 C         145.5227  142.7412  158.4987 C.3     1  UNL1        0.0724
     23 C         145.3509  141.7065  154.7852 C.3     1  UNL1        0.0173
     24 C         146.0649  141.9704  156.0776 C.3     1  UNL1        0.0576
     25 C         147.4853  142.4522  156.0649 C.3     1  UNL1        0.0173
     26 C         139.0064  139.6400  163.9356 C.ar    1  UNL1       -0.0040
     27 C         138.1615  140.6950  163.2852 C.ar    1  UNL1       -0.0003
     28 C         137.4578  140.4015  161.9934 C.ar    1  UNL1       -0.0000
     29 C         137.5991  139.0529  161.3520 C.ar    1  UNL1       -0.0000
     30 C         138.4440  137.9979  162.0024 C.ar    1  UNL1       -0.0000
     31 C         139.1477  138.2914  163.2942 C.ar    1  UNL1       -0.0003
     32 C         139.0038  139.7156  166.5326 C.3     1  UNL1        0.0289
     33 C         137.7262  138.9306  166.5720 C.3     1  UNL1        0.0364
     34 C         137.7681  137.4325  166.6344 C.3     1  UNL1        0.1375
     35 O         137.0369  136.7065  167.7246 O.3     1  UNL1       -0.3820
     36 H         137.4420  136.9160  168.5807 H       1  UNL1        0.2104
@<TRIPOS>BOND
     1    23    24    1
     2    24    25    1
     3    24    17    1
     4    17    18    1
     5    18    19    1
     6    19    20    1
     7    20    11    1
     8    11    12   ar
     9    12    13   ar
    10    13    14   ar
    11    14     1    1
    12     1     2    2
    13     2    32    1
    14    32    33    1
    15    33    34    1
    16    34    35    1
    17     2    26    1
    18    26    27   ar
    19    27    28   ar
    20    28    29   ar
    21    29    30   ar
    22    30    31   ar
    23     1     3    1
    24     3     4   ar
    25     4     5   ar
    26     5     6   ar
    27     6     7    1
    28     6     8   ar
    29     8     9   ar
    30    14    15   ar
    31    15    16   ar
    32    20    21    1
    33    21    22    1
    34    22    17    1
    35    16    11   ar
    36    31    26   ar
    37     9     3   ar
    38    35    36    1
    39     7    10    1
@<TRIPOS>MOLECULE
*****
 36 39 0 0 0
SMALL
GASTEIGER

@<TRIPOS>ATOM
      1 C         140.3101  140.9979  164.4459 C.2     1  UNL1       -0.0040
      2 C         141.3869  141.7154  165.2046 C.2     1  UNL1       -0.0221
      3 C         139.5417  139.8894  165.1022 C.ar    1  UNL1       -0.0001
      4 C         139.6937  138.4795  164.6131 C.ar    1  UNL1        0.0031
      5 C         138.9253  137.3710  165.2694 C.ar    1  UNL1        0.0366
      6 C         138.0048  137.6723  166.4148 C.ar    1  UNL1        0.1337
      7 O         137.2364  136.5638  167.0711 O.3     1  UNL1       -0.5055
      8 C         137.8528  139.0821  166.9039 C.ar    1  UNL1        0.0366
      9 C         138.6212  140.1907  166.2476 C.ar    1  UNL1        0.0031
     10 H         137.3314  135.6831  166.7655 H       1  UNL1        0.2922
     11 C         139.3848  142.1708  160.2011 C.ar    1  UNL1       -0.0224
     12 C         140.5636  141.2915  160.4963 C.ar    1  UNL1       -0.0043
     13 C         140.8720  140.9005  161.9112 C.ar    1  UNL1       -0.0003
     14 C         140.0017  141.3889  163.0310 C.ar    1  UNL1       -0.0003
     15 C         138.8229  142.2682  162.7358 C.ar    1  UNL1       -0.0003
     16 C         138.5145  142.6592  161.3209 C.ar    1  UNL1       -0.0043
     17 N         138.4596  143.3438  155.9563 N.3     1  UNL1       -0.2739
     18 C         139.4788  144.1143  156.7422 C.3     1  UNL1        0.0724
     19 C         139.7872  143.7233  158.1571 C.3     1  UNL1        0.0217
     20 C         139.0764  142.5618  158.7862 C.3     1  UNL1        0.0251
     21 C         138.0573  141.7913  158.0003 C.3     1  UNL1        0.0217
     22 C         137.7489  142.1823  156.5854 C.3     1  UNL1        0.0724
     23 C         139.2681  143.9853  153.5721 C.3     1  UNL1        0.0173
     24 C         138.1512  143.7347  154.5414 C.3     1  UNL1        0.0576
     25 C         136.7259  143.8752  154.0958 C.3     1  UNL1        0.0173
     26 C         142.1554  142.8239  164.5483 C.ar    1  UNL1       -0.0040
     27 C         141.5400  144.1851  164.4127 C.ar    1  UNL1       -0.0003
     28 C         142.3085  145.2937  163.7565 C.ar    1  UNL1       -0.0000
     29 C         143.6923  145.0410  163.2357 C.ar    1  UNL1       -0.0000
     30 C         144.3077  143.6797  163.3713 C.ar    1  UNL1       -0.0000
     31 C         143.5392  142.5712  164.0276 C.ar    1  UNL1       -0.0003
     32 C         141.6953  141.3244  166.6195 C.3     1  UNL1        0.0289
     33 C         141.3791  142.2659  167.7437 C.3     1  UNL1        0.0364
     34 C         142.3013  142.3627  168.9227 C.3     1  UNL1        0.1375
     35 O         143.7488  142.6980  168.7172 O.3     1  UNL1       -0.3820
     36 H         144.1815  141.9785  168.2314 H       1  UNL1        0.2104
@<TRIPOS>BOND
     1    23    24    1
     2    24    25    1
     3    24    17    1
     4    17    18    1
     5    18    19    1
     6    19    20    1
     7    20    11    1
     8    11    12   ar
     9    12    13   ar
    10    13    14   ar
    11    14     1    1
    12     1     2    2
    13     2    32    1
    14    32    33    1
    15    33    34    1
    16    34    35    1
    17     2    26    1
    18    26    27   ar
    19    27    28   ar
    20    28    29   ar
    21    29    30   ar
    22    30    31   ar
    23     1     3    1
    24     3     4   ar
    25     4     5   ar
    26     5     6   ar
    27     6     7    1
    28     6     8   ar
    29     8     9   ar
    30    14    15   ar
    31    15    16   ar
    32    20    21    1
    33    21    22    1
    34    22    17    1
    35    16    11   ar
    36    31    26   ar
    37     9     3   ar
    38    35    36    1
    39     7    10    1
@<TRIPOS>MOLECULE
*****
 36 39 0 0 0
SMALL
GASTEIGER

@<TRIPOS>ATOM
      1 C         141.0702  139.5861  164.7781 C.2     1  UNL1       -0.0040
      2 C         142.1142  140.3854  165.5000 C.2     1  UNL1       -0.0221
      3 C         139.8907  139.0418  165.5282 C.ar    1  UNL1       -0.0001
      4 C         139.2542  139.8543  166.6167 C.ar    1  UNL1        0.0031
      5 C         138.0748  139.3101  167.3668 C.ar    1  UNL1        0.0366
      6 C         137.5318  137.9534  167.0285 C.ar    1  UNL1        0.1337
      7 O         136.3523  137.4091  167.7787 O.3     1  UNL1       -0.5055
      8 C         138.1683  137.1409  165.9401 C.ar    1  UNL1        0.0366
      9 C         139.3478  137.6851  165.1899 C.ar    1  UNL1        0.0031
     10 H         135.9547  137.9167  168.4586 H       1  UNL1        0.2922
     11 C         141.4764  138.8210  160.3623 C.ar    1  UNL1       -0.0224
     12 C         140.6741  139.9907  160.8501 C.ar    1  UNL1       -0.0043
     13 C         140.5387  140.2458  162.3221 C.ar    1  UNL1       -0.0003
     14 C         141.2056  139.3311  163.3062 C.ar    1  UNL1       -0.0003
     15 C         142.0079  138.1613  162.8184 C.ar    1  UNL1       -0.0003
     16 C         142.1433  137.9063  161.3464 C.ar    1  UNL1       -0.0043
     17 N         141.8826  138.0559  155.9465 N.3     1  UNL1       -0.2739
     18 C         140.7856  138.9427  156.4562 C.3     1  UNL1        0.0724
     19 C         140.6502  139.1978  157.9281 C.3     1  UNL1        0.0217
     20 C         141.6118  138.5660  158.8904 C.3     1  UNL1        0.0251
     21 C         142.7089  137.6791  158.3807 C.3     1  UNL1        0.0217
     22 C         142.8443  137.4241  156.9087 C.3     1  UNL1        0.0724
     23 C         142.2151  136.4018  153.9708 C.3     1  UNL1        0.0173
     24 C         142.0181  137.8009  154.4745 C.3     1  UNL1        0.0576
     25 C         141.9564  138.9448  153.5064 C.3     1  UNL1        0.0173
     26 C         143.2937  140.9297  164.7499 C.ar    1  UNL1       -0.0040
     27 C         144.5438  140.1107  164.6214 C.ar    1  UNL1       -0.0003
     28 C         145.7233  140.6550  163.8713 C.ar    1  UNL1       -0.0000
     29 C         145.6526  142.0183  163.2497 C.ar    1  UNL1       -0.0000
     30 C         144.4025  142.8373  163.3782 C.ar    1  UNL1       -0.0000
     31 C         143.2231  142.2930  164.1283 C.ar    1  UNL1       -0.0003
     32 C         141.9788  140.6404  166.9719 C.3     1  UNL1        0.0289
     33 C         142.6940  139.7610  167.9544 C.3     1  UNL1        0.0364
     34 C         142.4452  139.9221  169.4248 C.3     1  UNL1        0.1375
     35 O         143.5067  140.5128  170.3048 O.3     1  UNL1       -0.3820
     36 H         144.2712  139.9166  170.3339 H       1  UNL1        0.2104
@<TRIPOS>BOND
     1    23    24    1
     2    24    25    1
     3    24    17    1
     4    17    18    1
     5    18    19    1
     6    19    20    1
     7    20    11    1
     8    11    12   ar
     9    12    13   ar
    10    13    14   ar
    11    14     1    1
    12     1     2    2
    13     2    32    1
    14    32    33    1
    15    33    34    1
    16    34    35    1
    17     2    26    1
    18    26    27   ar
    19    27    28   ar
    20    28    29   ar
    21    29    30   ar
    22    30    31   ar
    23     1     3    1
    24     3     4   ar
    25     4     5   ar
    26     5     6   ar
    27     6     7    1
    28     6     8   ar
    29     8     9   ar
    30    14    15   ar
    31    15    16   ar
    32    20    21    1
    33    21    22    1
    34    22    17    1
    35    16    11   ar
    36    31    26   ar
    37     9     3   ar
    38    35    36    1
    39     7    10    1
@<TRIPOS>MOLECULE
*****
 36 39 0 0 0
SMALL
GASTEIGER

@<TRIPOS>ATOM
      1 C         141.1267  141.2367  166.6135 C.2     1  UNL1       -0.0040
      2 C         139.9166  140.3628  166.7611 C.2     1  UNL1       -0.0221
      3 C         141.6985  141.9345  167.8119 C.ar    1  UNL1       -0.0001
      4 C         140.8770  142.9476  168.5528 C.ar    1  UNL1        0.0031
      5 C         141.4489  143.6454  169.7511 C.ar    1  UNL1        0.0366
      6 C         142.8422  143.3301  170.2086 C.ar    1  UNL1        0.1337
      7 O         143.4140  144.0279  171.4070 O.3     1  UNL1       -0.5055
      8 C         143.6637  142.3171  169.4678 C.ar    1  UNL1        0.0366
      9 C         143.0918  141.6192  168.2694 C.ar    1  UNL1        0.0031
     10 H         142.9009  144.6607  171.8698 H       1  UNL1        0.2922
     11 C         143.0414  141.7653  162.5757 C.ar    1  UNL1       -0.0224
     12 C         143.3265  140.5355  163.3857 C.ar    1  UNL1       -0.0043
     13 C         142.6883  140.3593  164.7317 C.ar    1  UNL1       -0.0003
     14 C         141.7649  141.4129  165.2676 C.ar    1  UNL1       -0.0003
     15 C         141.4798  142.6427  164.4575 C.ar    1  UNL1       -0.0003
     16 C         142.1180  142.8189  163.1116 C.ar    1  UNL1       -0.0043
     17 N         144.9561  142.2939  158.5378 N.3     1  UNL1       -0.2739
     18 C         143.6447  141.5758  158.6578 C.3     1  UNL1        0.0724
     19 C         143.0065  141.3996  160.0037 C.3     1  UNL1        0.0217
     20 C         143.6796  141.9415  161.2297 C.3     1  UNL1        0.0251
     21 C         144.9910  142.6597  161.1097 C.3     1  UNL1        0.0217
     22 C         145.6292  142.8359  159.7638 C.3     1  UNL1        0.0724
     23 C         144.7670  142.3437  155.9471 C.3     1  UNL1        0.0173
     24 C         145.5943  142.4702  157.1918 C.3     1  UNL1        0.0576
     25 C         147.0600  142.7728  157.0906 C.3     1  UNL1        0.0173
     26 C         139.3447  139.6650  165.5628 C.ar    1  UNL1       -0.0040
     27 C         139.6604  138.2197  165.3149 C.ar    1  UNL1       -0.0003
     28 C         139.0885  137.5219  164.1165 C.ar    1  UNL1       -0.0000
     29 C         138.2009  138.2694  163.1661 C.ar    1  UNL1       -0.0000
     30 C         137.8852  139.7147  163.4140 C.ar    1  UNL1       -0.0000
     31 C         138.4571  140.4125  164.6123 C.ar    1  UNL1       -0.0003
     32 C         139.2784  140.1866  168.1071 C.3     1  UNL1        0.0289
     33 C         140.0426  139.5322  169.2197 C.3     1  UNL1        0.0364
     34 C         139.8959  140.0329  170.6261 C.3     1  UNL1        0.1375
     35 O         139.6300  139.0667  171.7422 O.3     1  UNL1       -0.3820
     36 H         138.7554  138.6653  171.6208 H       1  UNL1        0.2104
@<TRIPOS>BOND
     1    23    24    1
     2    24    25    1
     3    24    17    1
     4    17    18    1
     5    18    19    1
     6    19    20    1
     7    20    11    1
     8    11    12   ar
     9    12    13   ar
    10    13    14   ar
    11    14     1    1
    12     1     2    2
    13     2    32    1
    14    32    33    1
    15    33    34    1
    16    34    35    1
    17     2    26    1
    18    26    27   ar
    19    27    28   ar
    20    28    29   ar
    21    29    30   ar
    22    30    31   ar
    23     1     3    1
    24     3     4   ar
    25     4     5   ar
    26     5     6   ar
    27     6     7    1
    28     6     8   ar
    29     8     9   ar
    30    14    15   ar
    31    15    16   ar
    32    20    21    1
    33    21    22    1
    34    22    17    1
    35    16    11   ar
    36    31    26   ar
    37     9     3   ar
    38    35    36    1
    39     7    10    1
@<TRIPOS>MOLECULE
*****
 36 39 0 0 0
SMALL
GASTEIGER

@<TRIPOS>ATOM
      1 C         141.3501  141.2542  166.6309 C.2     1  UNL1       -0.0040
      2 C         142.1880  140.0104  166.6607 C.2     1  UNL1       -0.0221
      3 C         140.7402  141.7781  167.8971 C.ar    1  UNL1       -0.0001
      4 C         141.1119  143.1413  168.4006 C.ar    1  UNL1        0.0031
      5 C         140.5020  143.6653  169.6669 C.ar    1  UNL1        0.0366
      6 C         139.5203  142.8260  170.4297 C.ar    1  UNL1        0.1337
      7 O         138.9104  143.3500  171.6960 O.3     1  UNL1       -0.5055
      8 C         139.1486  141.4628  169.9263 C.ar    1  UNL1        0.0366
      9 C         139.7585  140.9388  168.6600 C.ar    1  UNL1        0.0031
     10 H         139.1427  144.2016  172.0105 H       1  UNL1        0.2922
     11 C         140.6662  143.4137  162.7426 C.ar    1  UNL1       -0.0224
     12 C         139.6949  142.3660  163.1995 C.ar    1  UNL1       -0.0043
     13 C         139.9229  141.6461  164.4956 C.ar    1  UNL1       -0.0003
     14 C         141.1221  141.9740  165.3348 C.ar    1  UNL1       -0.0003
     15 C         142.0934  143.0217  164.8779 C.ar    1  UNL1       -0.0003
     16 C         141.8655  143.7416  163.5818 C.ar    1  UNL1       -0.0043
     17 N         139.9823  145.5732  158.8543 N.3     1  UNL1       -0.2739
     18 C         139.9863  146.3365  160.1455 C.3     1  UNL1        0.0724
     19 C         140.2143  145.6167  161.4416 C.3     1  UNL1        0.0217
     20 C         140.4383  144.1335  161.4465 C.3     1  UNL1        0.0251
     21 C         140.4342  143.3702  160.1553 C.3     1  UNL1        0.0217
     22 C         140.2063  144.0901  158.8592 C.3     1  UNL1        0.0724
     23 C         138.9780  147.5763  157.5395 C.3     1  UNL1        0.0173
     24 C         139.7544  146.2931  157.5582 C.3     1  UNL1        0.0576
     25 C         140.3028  145.7296  156.2808 C.3     1  UNL1        0.0173
     26 C         142.7979  139.4864  165.3944 C.ar    1  UNL1       -0.0040
     27 C         144.1883  139.8946  165.0068 C.ar    1  UNL1       -0.0003
     28 C         144.7982  139.3706  163.7405 C.ar    1  UNL1       -0.0000
     29 C         144.0178  138.4384  162.8619 C.ar    1  UNL1       -0.0000
     30 C         142.6274  138.0302  163.2496 C.ar    1  UNL1       -0.0000
     31 C         142.0175  138.5542  164.5158 C.ar    1  UNL1       -0.0003
     32 C         142.4159  139.2905  167.9568 C.3     1  UNL1        0.0289
     33 C         142.9641  140.0318  169.1401 C.3     1  UNL1        0.0364
     34 C         142.8152  139.4592  170.5185 C.3     1  UNL1        0.1375
     35 O         143.9920  139.4260  171.4480 O.3     1  UNL1       -0.3820
     36 H         144.6664  138.8250  171.0945 H       1  UNL1        0.2104
@<TRIPOS>BOND
     1    23    24    1
     2    24    25    1
     3    24    17    1
     4    17    18    1
     5    18    19    1
     6    19    20    1
     7    20    11    1
     8    11    12   ar
     9    12    13   ar
    10    13    14   ar
    11    14     1    1
    12     1     2    2
    13     2    32    1
    14    32    33    1
    15    33    34    1
    16    34    35    1
    17     2    26    1
    18    26    27   ar
    19    27    28   ar
    20    28    29   ar
    21    29    30   ar
    22    30    31   ar
    23     1     3    1
    24     3     4   ar
    25     4     5   ar
    26     5     6   ar
    27     6     7    1
    28     6     8   ar
    29     8     9   ar
    30    14    15   ar
    31    15    16   ar
    32    20    21    1
    33    21    22    1
    34    22    17    1
    35    16    11   ar
    36    31    26   ar
    37     9     3   ar
    38    35    36    1
    39     7    10    1
@<TRIPOS>MOLECULE
*****
 36 39 0 0 0
SMALL
GASTEIGER

@<TRIPOS>ATOM
      1 C         140.4588  141.4658  159.5781 C.2     1  UNL1       -0.0040
      2 C         140.0025  141.4090  161.0059 C.2     1  UNL1       -0.0221
      3 C         140.5559  142.7866  158.8739 C.ar    1  UNL1       -0.0001
      4 C         139.4557  143.2296  157.9555 C.ar    1  UNL1        0.0031
      5 C         139.5528  144.5504  157.2512 C.ar    1  UNL1        0.0366
      6 C         140.7501  145.4283  157.4653 C.ar    1  UNL1        0.1337
      7 O         140.8472  146.7491  156.7610 O.3     1  UNL1       -0.5055
      8 C         141.8503  144.9853  158.3836 C.ar    1  UNL1        0.0366
      9 C         141.7532  143.6645  159.0879 C.ar    1  UNL1        0.0031
     10 H         140.1599  147.0258  156.1873 H       1  UNL1        0.2922
     11 C         141.5362  137.6740  157.4076 C.ar    1  UNL1       -0.0224
     12 C         142.6009  138.4668  158.1059 C.ar    1  UNL1       -0.0043
     13 C         142.2418  139.7308  158.8294 C.ar    1  UNL1       -0.0003
     14 C         140.8179  140.2019  158.8546 C.ar    1  UNL1       -0.0003
     15 C         139.7532  139.4090  158.1563 C.ar    1  UNL1       -0.0003
     16 C         140.1123  138.1451  157.4328 C.ar    1  UNL1       -0.0043
     17 N         142.6136  133.8821  155.2371 N.3     1  UNL1       -0.2739
     18 C         141.3860  134.6488  154.8433 C.3     1  UNL1        0.0724
     19 C         141.0269  135.9128  155.5668 C.3     1  UNL1        0.0217
     20 C         141.8953  136.4100  156.6841 C.3     1  UNL1        0.0251
     21 C         143.1229  135.6433  157.0780 C.3     1  UNL1        0.0217
     22 C         143.4820  134.3794  156.3545 C.3     1  UNL1        0.0724
     23 C         142.4051  132.3462  153.1521 C.3     1  UNL1        0.0173
     24 C         142.9727  132.6182  154.5136 C.3     1  UNL1        0.0576
     25 C         143.8995  131.6262  155.1516 C.3     1  UNL1        0.0173
     26 C         139.9054  140.0881  161.7102 C.ar    1  UNL1       -0.0040
     27 C         138.6328  139.2966  161.6477 C.ar    1  UNL1       -0.0003
     28 C         138.5356  137.9758  162.3521 C.ar    1  UNL1       -0.0000
     29 C         139.7112  137.4465  163.1189 C.ar    1  UNL1       -0.0000
     30 C         140.9838  138.2381  163.1814 C.ar    1  UNL1       -0.0000
     31 C         141.0809  139.5589  162.4771 C.ar    1  UNL1       -0.0003
     32 C         139.6434  142.6729  161.7294 C.3     1  UNL1        0.0289
     33 C         138.2029  143.0198  161.9632 C.3     1  UNL1        0.0364
     34 C         137.5188  142.5741  163.2216 C.3     1  UNL1        0.1375
     35 O         136.6061  141.3840  163.1979 O.3     1  UNL1       -0.3820
     36 H         135.8290  141.5833  162.6526 H       1  UNL1        0.2104
@<TRIPOS>BOND
     1    23    24    1
     2    24    25    1
     3    24    17    1
     4    17    18    1
     5    18    19    1
     6    19    20    1
     7    20    11    1
     8    11    12   ar
     9    12    13   ar
    10    13    14   ar
    11    14     1    1
    12     1     2    2
    13     2    32    1
    14    32    33    1
    15    33    34    1
    16    34    35    1
    17     2    26    1
    18    26    27   ar
    19    27    28   ar
    20    28    29   ar
    21    29    30   ar
    22    30    31   ar
    23     1     3    1
    24     3     4   ar
    25     4     5   ar
    26     5     6   ar
    27     6     7    1
    28     6     8   ar
    29     8     9   ar
    30    14    15   ar
    31    15    16   ar
    32    20    21    1
    33    21    22    1
    34    22    17    1
    35    16    11   ar
    36    31    26   ar
    37     9     3   ar
    38    35    36    1
    39     7    10    1
