@<TRIPOS>MOLECULE
*****
 41 47 0 0 0
SMALL
GASTEIGER

@<TRIPOS>ATOM
      1 C         140.8094  141.1401  159.8283 C.3     1  UNL1        0.1707
      2 N         141.1425  140.0558  158.8468 N.3     1  UNL1       -0.2797
      3 C         142.4508  139.3290  158.9474 C.3     1  UNL1        0.1167
      4 C         143.4261  139.6866  160.0295 C.3     1  UNL1        0.0511
      5 C         143.0931  140.7709  161.0110 C.2     1  UNL1       -0.0037
      6 C         141.7848  141.4976  160.9104 C.2     1  UNL1        0.0800
      7 N         141.7332  142.5139  162.0124 N.2     1  UNL1       -0.2519
      8 C         143.0096  142.4153  162.7941 C.2     1  UNL1        0.0627
      9 C         143.5152  143.1673  163.9894 C.3     1  UNL1        0.0717
     10 C         144.8612  142.8420  164.5659 C.2     1  UNL1       -0.0198
     11 C         145.7017  141.7647  163.9470 C.2     1  UNL1       -0.0042
     12 C         145.1961  141.0128  162.7516 C.2     1  UNL1        0.0006
     13 C         143.8501  141.3381  162.1751 C.2     1  UNL1        0.0111
     14 H         141.1110  140.4785  157.9191 H       1  UNL1        0.1246
     15 C         142.7839  138.2447  157.9659 C.ar    1  UNL1        0.1319
     16 N         142.3905  136.8016  158.0793 N.ar    1  UNL1       -0.2282
     17 C         142.9323  136.0781  156.8822 C.ar    1  UNL1        0.1171
     18 C         143.6604  137.0740  156.0290 C.ar    1  UNL1        0.0942
     19 N         143.5687  138.4130  156.6987 N.ar    1  UNL1       -0.3385
     20 H         143.9556  139.2546  156.3652 H       1  UNL1        0.1672
     21 C         142.7737  134.6154  156.5897 C.ar    1  UNL1        0.1006
     22 C         141.7856  134.1599  155.5571 C.ar    1  UNL1        0.0230
     23 C         141.6270  132.6973  155.2646 C.ar    1  UNL1        0.0328
     24 C         142.4565  131.6902  156.0047 C.ar    1  UNL1        0.1592
     25 F         142.2980  130.2275  155.7122 F       1  UNL1       -0.2025
     26 C         143.4446  132.1457  157.0373 C.ar    1  UNL1        0.1284
     27 N         143.6032  133.6083  157.3298 N.ar    1  UNL1       -0.2399
     28 N         137.9223  141.7913  157.3172 N.ar    1  UNL1       -0.2497
     29 C         139.2646  142.1394  157.8893 C.ar    1  UNL1        0.0944
     30 C         139.5689  141.1617  158.9855 C.ar    1  UNL1        0.0439
     31 C         138.4147  140.2094  159.0908 C.ar    1  UNL1        0.1194
     32 N         137.3971  140.5985  158.0597 N.ar    1  UNL1       -0.1679
     33 C         136.0718  141.8623  155.4949 C.3     1  UNL1        0.0284
     34 C         137.2273  142.5099  156.1988 C.3     1  UNL1        0.1276
     35 C         140.0456  142.2319  160.5171 C.ar    1  UNL1        0.2487
     36 N         140.0486  143.6835  160.1395 N.ar    1  UNL1       -0.1088
     37 N         139.1495  144.4125  161.0936 N.ar    1  UNL1       -0.1009
     38 C         138.5908  143.4114  162.0608 C.ar    1  UNL1        0.2781
     39 O         139.1446  142.0636  161.7045 O.2     1  UNL1       -0.4128
     40 S         137.6444  143.7062  163.1866 S.3     1  UNL1       -0.0544
     41 C         138.1718  144.2109  164.4970 C.3     1  UNL1        0.0789
@<TRIPOS>BOND
     1    33    34    1
     2    34    28    1
     3    28    29   ar
     4    29    30   ar
     5     1    30    1
     6     1    35    1
     7    35    36   ar
     8    36    37   ar
     9    37    38   ar
    10    38    40    1
    11    40    41    1
    12    38    39   ar
    13     1     2    1
    14     2     3    1
    15     3    15    1
    16    15    16   ar
    17    16    17   ar
    18    17    21    1
    19    21    22   ar
    20    22    23   ar
    21    23    24   ar
    22    24    25    1
    23    24    26   ar
    24    26    27   ar
    25    17    18   ar
    26    18    19   ar
    27     3     4    1
    28     4     5    1
    29     5     6    2
    30     6     7    1
    31     7     8    2
    32     8     9    1
    33     9    10    1
    34    10    11    2
    35    11    12    1
    36    12    13    2
    37    30    31   ar
    38    31    32   ar
    39    32    28   ar
    40     6     1    1
    41    13     8    1
    42    39    35   ar
    43    19    15   ar
    44    13     5    1
    45    27    21   ar
    46     2    14    1
    47    19    20    1
@<TRIPOS>MOLECULE
*****
 41 47 0 0 0
SMALL
GASTEIGER

@<TRIPOS>ATOM
      1 C         139.5627  140.9138  159.4703 C.3     1  UNL1        0.1707
      2 N         139.8022  139.5849  158.8172 N.3     1  UNL1       -0.2797
      3 C         140.3106  139.5228  157.4073 C.3     1  UNL1        0.1167
      4 C         140.5794  140.7898  156.6506 C.3     1  UNL1        0.0511
      5 C         140.3399  142.1187  157.3037 C.2     1  UNL1       -0.0037
      6 C         139.8315  142.1807  158.7135 C.2     1  UNL1        0.0800
      7 N         139.6906  143.6252  159.0922 N.2     1  UNL1       -0.2519
      8 C         140.1118  144.4560  157.9165 C.2     1  UNL1        0.0627
      9 C         140.1818  145.9400  157.7096 C.3     1  UNL1        0.0717
     10 C         140.6531  146.4928  156.3973 C.2     1  UNL1       -0.0198
     11 C         141.0544  145.5617  155.2919 C.2     1  UNL1       -0.0042
     12 C         140.9844  144.0777  155.4988 C.2     1  UNL1        0.0006
     13 C         140.5131  143.5249  156.8110 C.2     1  UNL1        0.0111
     14 H         138.9132  139.0851  158.8319 H       1  UNL1        0.1246
     15 C         140.5501  138.1939  156.7542 C.ar    1  UNL1        0.1319
     16 N         141.6691  137.2459  157.0688 N.ar    1  UNL1       -0.2282
     17 C         141.5233  136.0457  156.1808 C.ar    1  UNL1        0.1171
     18 C         140.3142  136.2520  155.3175 C.ar    1  UNL1        0.0942
     19 N         139.7127  137.5797  155.6718 N.ar    1  UNL1       -0.3385
     20 H         138.9093  137.9780  155.2654 H       1  UNL1        0.1672
     21 C         142.4279  134.8493  156.1599 C.ar    1  UNL1        0.1006
     22 C         142.4270  133.9290  154.9754 C.ar    1  UNL1        0.0230
     23 C         143.3315  132.7326  154.9545 C.ar    1  UNL1        0.0328
     24 C         144.2370  132.4566  156.1180 C.ar    1  UNL1        0.1592
     25 F         145.1415  131.2601  156.0971 F       1  UNL1       -0.2025
     26 C         144.2379  133.3769  157.3025 C.ar    1  UNL1        0.1284
     27 N         143.3334  134.5732  157.3235 N.ar    1  UNL1       -0.2399
     28 N         139.2623  138.5419  162.5279 N.ar    1  UNL1       -0.2497
     29 C         140.0857  139.3840  161.5989 C.ar    1  UNL1        0.0944
     30 C         139.1623  139.9980  160.5887 C.ar    1  UNL1        0.0439
     31 C         137.7683  139.5354  160.8934 C.ar    1  UNL1        0.1194
     32 N         137.8301  138.6355  162.0919 N.ar    1  UNL1       -0.1679
     33 C         138.9973  137.6879  164.9673 C.3     1  UNL1        0.0284
     34 C         139.7802  137.7460  163.6891 C.3     1  UNL1        0.1276
     35 C         139.1841  141.9248  160.5118 C.ar    1  UNL1        0.2487
     36 N         137.8373  142.5655  160.6701 N.ar    1  UNL1       -0.1088
     37 N         137.9068  143.5092  161.8341 N.ar    1  UNL1       -0.1009
     38 C         139.2967  143.4516  162.3950 C.ar    1  UNL1        0.2781
     39 O         140.0862  142.4723  161.5778 O.2     1  UNL1       -0.4128
     40 S         139.8075  144.2356  163.5674 S.3     1  UNL1       -0.0544
     41 C         138.8505  144.7410  164.6060 C.3     1  UNL1        0.0789
@<TRIPOS>BOND
     1    33    34    1
     2    34    28    1
     3    28    29   ar
     4    29    30   ar
     5     1    30    1
     6     1    35    1
     7    35    36   ar
     8    36    37   ar
     9    37    38   ar
    10    38    40    1
    11    40    41    1
    12    38    39   ar
    13     1     2    1
    14     2     3    1
    15     3    15    1
    16    15    16   ar
    17    16    17   ar
    18    17    21    1
    19    21    22   ar
    20    22    23   ar
    21    23    24   ar
    22    24    25    1
    23    24    26   ar
    24    26    27   ar
    25    17    18   ar
    26    18    19   ar
    27     3     4    1
    28     4     5    1
    29     5     6    2
    30     6     7    1
    31     7     8    2
    32     8     9    1
    33     9    10    1
    34    10    11    2
    35    11    12    1
    36    12    13    2
    37    30    31   ar
    38    31    32   ar
    39    32    28   ar
    40     6     1    1
    41    13     8    1
    42    39    35   ar
    43    19    15   ar
    44    13     5    1
    45    27    21   ar
    46     2    14    1
    47    19    20    1
@<TRIPOS>MOLECULE
*****
 41 47 0 0 0
SMALL
GASTEIGER

@<TRIPOS>ATOM
      1 C         142.3953  142.6599  160.1660 C.3     1  UNL1        0.1707
      2 N         141.8839  143.2763  158.8978 N.3     1  UNL1       -0.2797
      3 C         140.7136  144.2136  158.9383 C.3     1  UNL1        0.1167
      4 C         140.0546  144.5345  160.2470 C.3     1  UNL1        0.0511
      5 C         140.5660  143.9181  161.5153 C.2     1  UNL1       -0.0037
      6 C         141.7363  142.9808  161.4748 C.2     1  UNL1        0.0800
      7 N         142.0169  142.5289  162.8773 N.2     1  UNL1       -0.2519
      8 C         141.0200  143.1869  163.7846 C.2     1  UNL1        0.0627
      9 C         140.8130  143.1152  165.2684 C.3     1  UNL1        0.0717
     10 C         139.7092  143.9021  165.9105 C.2     1  UNL1       -0.0198
     11 C         138.8124  144.7607  165.0688 C.2     1  UNL1       -0.0042
     12 C         139.0194  144.8324  163.5849 C.2     1  UNL1        0.0006
     13 C         140.1233  144.0455  162.9428 C.2     1  UNL1        0.0111
     14 H         141.6239  142.5071  158.2805 H       1  UNL1        0.1246
     15 C         140.2021  144.8301  157.6700 C.ar    1  UNL1        0.1319
     16 N         140.4032  146.2522  157.2374 N.ar    1  UNL1       -0.2282
     17 C         139.7252  146.4337  155.9118 C.ar    1  UNL1        0.1171
     18 C         139.1051  145.1238  155.5251 C.ar    1  UNL1        0.0942
     19 N         139.3998  144.1327  156.6117 N.ar    1  UNL1       -0.3385
     20 H         139.1165  143.1900  156.6276 H       1  UNL1        0.1672
     21 C         139.6760  147.7025  155.1130 C.ar    1  UNL1        0.1006
     22 C         140.3155  147.7606  153.7575 C.ar    1  UNL1        0.0230
     23 C         140.2663  149.0293  152.9587 C.ar    1  UNL1        0.0328
     24 C         139.5776  150.2398  153.5156 C.ar    1  UNL1        0.1592
     25 F         139.5283  151.5086  152.7169 F       1  UNL1       -0.2025
     26 C         138.9380  150.1817  154.8712 C.ar    1  UNL1        0.1284
     27 N         138.9872  148.9131  155.6699 N.ar    1  UNL1       -0.2399
     28 N         145.1520  141.7782  157.5798 N.ar    1  UNL1       -0.2497
     29 C         144.4583  142.7667  158.4696 C.ar    1  UNL1        0.0944
     30 C         143.3466  142.0515  159.1787 C.ar    1  UNL1        0.0439
     31 C         143.3533  140.6211  158.7271 C.ar    1  UNL1        0.1194
     32 N         144.4691  140.4522  157.7389 N.ar    1  UNL1       -0.1679
     33 C         147.4430  142.9352  157.1765 C.3     1  UNL1        0.0284
     34 C         146.3230  142.0655  156.6874 C.3     1  UNL1        0.1276
     35 C         143.2371  141.8322  161.0915 C.ar    1  UNL1        0.2487
     36 N         144.6407  142.1414  161.5204 N.ar    1  UNL1       -0.1088
     37 N         145.0940  141.0502  162.4445 N.ar    1  UNL1       -0.1009
     38 C         143.9705  140.0666  162.5865 C.ar    1  UNL1        0.2781
     39 O         142.8228  140.5499  161.7503 O.2     1  UNL1       -0.4128
     40 S         143.9911  138.8187  163.4187 S.3     1  UNL1       -0.0544
     41 C         142.8417  138.5062  164.3303 C.3     1  UNL1        0.0789
@<TRIPOS>BOND
     1    33    34    1
     2    34    28    1
     3    28    29   ar
     4    29    30   ar
     5     1    30    1
     6     1    35    1
     7    35    36   ar
     8    36    37   ar
     9    37    38   ar
    10    38    40    1
    11    40    41    1
    12    38    39   ar
    13     1     2    1
    14     2     3    1
    15     3    15    1
    16    15    16   ar
    17    16    17   ar
    18    17    21    1
    19    21    22   ar
    20    22    23   ar
    21    23    24   ar
    22    24    25    1
    23    24    26   ar
    24    26    27   ar
    25    17    18   ar
    26    18    19   ar
    27     3     4    1
    28     4     5    1
    29     5     6    2
    30     6     7    1
    31     7     8    2
    32     8     9    1
    33     9    10    1
    34    10    11    2
    35    11    12    1
    36    12    13    2
    37    30    31   ar
    38    31    32   ar
    39    32    28   ar
    40     6     1    1
    41    13     8    1
    42    39    35   ar
    43    19    15   ar
    44    13     5    1
    45    27    21   ar
    46     2    14    1
    47    19    20    1
@<TRIPOS>MOLECULE
*****
 41 47 0 0 0
SMALL
GASTEIGER

@<TRIPOS>ATOM
      1 C         139.6550  141.5233  159.8718 C.3     1  UNL1        0.1707
      2 N         139.7358  140.6902  158.6270 N.3     1  UNL1       -0.2797
      3 C         139.6260  139.1969  158.7155 C.3     1  UNL1        0.1167
      4 C         139.4354  138.5366  160.0488 C.3     1  UNL1        0.0511
      5 C         139.3546  139.3696  161.2936 C.2     1  UNL1       -0.0037
      6 C         139.4644  140.8629  161.2051 C.2     1  UNL1        0.0800
      7 N         139.3494  141.4192  162.5933 N.2     1  UNL1       -0.2519
      8 C         139.1685  140.2697  163.5399 C.2     1  UNL1        0.0627
      9 C         139.0012  140.2128  165.0294 C.3     1  UNL1        0.0717
     10 C         138.8372  138.8891  165.7156 C.2     1  UNL1       -0.0198
     11 C         138.8405  137.6223  164.9123 C.2     1  UNL1       -0.0042
     12 C         139.0077  137.6793  163.4228 C.2     1  UNL1        0.0006
     13 C         139.1717  139.0029  162.7365 C.2     1  UNL1        0.0111
     14 H         140.6366  140.8941  158.1942 H       1  UNL1        0.1246
     15 C         139.7067  138.3638  157.4707 C.ar    1  UNL1        0.1319
     16 N         140.6598  137.2312  157.2281 N.ar    1  UNL1       -0.2282
     17 C         140.3908  136.6845  155.8575 C.ar    1  UNL1        0.1171
     18 C         139.2714  137.4792  155.2530 C.ar    1  UNL1        0.0942
     19 N         138.8486  138.5170  156.2500 N.ar    1  UNL1       -0.3385
     20 H         138.1335  139.1820  156.1251 H       1  UNL1        0.1672
     21 C         141.1141  135.5434  155.2058 C.ar    1  UNL1        0.1006
     22 C         141.0205  135.3456  153.7218 C.ar    1  UNL1        0.0230
     23 C         141.7438  134.2046  153.0701 C.ar    1  UNL1        0.0328
     24 C         142.5608  133.2613  153.9023 C.ar    1  UNL1        0.1592
     25 F         143.2841  132.1201  153.2506 F       1  UNL1       -0.2025
     26 C         142.6544  133.4590  155.3863 C.ar    1  UNL1        0.1284
     27 N         141.9311  134.6000  156.0380 N.ar    1  UNL1       -0.2399
     28 N         139.4491  144.1085  156.9840 N.ar    1  UNL1       -0.2497
     29 C         138.8560  142.9847  157.7812 C.ar    1  UNL1        0.0944
     30 C         139.8398  142.6031  158.8473 C.ar    1  UNL1        0.0439
     31 C         141.0408  143.4911  158.7089 C.ar    1  UNL1        0.1194
     32 N         140.7993  144.4214  157.5573 N.ar    1  UNL1       -0.1679
     33 C         137.4579  144.3509  155.3328 C.3     1  UNL1        0.0284
     34 C         138.8049  144.7983  155.8180 C.3     1  UNL1        0.1276
     35 C         139.6384  142.7313  160.7608 C.ar    1  UNL1        0.2487
     36 N         138.4435  143.5850  161.0661 N.ar    1  UNL1       -0.1088
     37 N         138.8805  144.6791  161.9946 N.ar    1  UNL1       -0.1009
     38 C         140.3455  144.5015  162.2632 C.ar    1  UNL1        0.2781
     39 O         140.8139  143.2977  161.5006 O.2     1  UNL1       -0.4128
     40 S         141.1932  145.3744  163.1403 S.3     1  UNL1       -0.0544
     41 C         142.5478  144.9047  163.5812 C.3     1  UNL1        0.0789
@<TRIPOS>BOND
     1    33    34    1
     2    34    28    1
     3    28    29   ar
     4    29    30   ar
     5     1    30    1
     6     1    35    1
     7    35    36   ar
     8    36    37   ar
     9    37    38   ar
    10    38    40    1
    11    40    41    1
    12    38    39   ar
    13     1     2    1
    14     2     3    1
    15     3    15    1
    16    15    16   ar
    17    16    17   ar
    18    17    21    1
    19    21    22   ar
    20    22    23   ar
    21    23    24   ar
    22    24    25    1
    23    24    26   ar
    24    26    27   ar
    25    17    18   ar
    26    18    19   ar
    27     3     4    1
    28     4     5    1
    29     5     6    2
    30     6     7    1
    31     7     8    2
    32     8     9    1
    33     9    10    1
    34    10    11    2
    35    11    12    1
    36    12    13    2
    37    30    31   ar
    38    31    32   ar
    39    32    28   ar
    40     6     1    1
    41    13     8    1
    42    39    35   ar
    43    19    15   ar
    44    13     5    1
    45    27    21   ar
    46     2    14    1
    47    19    20    1
@<TRIPOS>MOLECULE
*****
 41 47 0 0 0
SMALL
GASTEIGER

@<TRIPOS>ATOM
      1 C         141.0355  142.4547  159.3174 C.3     1  UNL1        0.1707
      2 N         139.7668  142.0491  158.6277 N.3     1  UNL1       -0.2797
      3 C         139.8070  141.5604  157.2101 C.3     1  UNL1        0.1167
      4 C         141.1160  141.4772  156.4823 C.3     1  UNL1        0.0511
      5 C         142.3847  141.8828  157.1720 C.2     1  UNL1       -0.0037
      6 C         142.3445  142.3715  158.5896 C.2     1  UNL1        0.0800
      7 N         143.7475  142.6995  159.0067 N.2     1  UNL1       -0.2519
      8 C         144.6548  142.4136  157.8470 C.2     1  UNL1        0.0627
      9 C         146.1390  142.5476  157.6769 C.3     1  UNL1        0.0717
     10 C         146.7810  142.1768  156.3730 C.2     1  UNL1       -0.0198
     11 C         145.9388  141.6720  155.2391 C.2     1  UNL1       -0.0042
     12 C         144.4545  141.5380  155.4091 C.2     1  UNL1        0.0006
     13 C         143.8125  141.9088  156.7130 C.2     1  UNL1        0.0111
     14 H         139.1512  142.8623  158.6414 H       1  UNL1        0.1246
     15 C         138.5382  141.1548  156.5203 C.ar    1  UNL1        0.1319
     16 N         137.1648  141.1648  157.1234 N.ar    1  UNL1       -0.2282
     17 C         136.1979  140.6842  156.0822 C.ar    1  UNL1        0.1171
     18 C         136.9737  140.3772  154.8357 C.ar    1  UNL1        0.0942
     19 N         138.4201  140.6681  155.1064 N.ar    1  UNL1       -0.3385
     20 H         139.1617  140.5587  154.4682 H       1  UNL1        0.1672
     21 C         134.7154  140.5365  156.2569 C.ar    1  UNL1        0.1006
     22 C         133.7761  141.2879  155.3608 C.ar    1  UNL1        0.0230
     23 C         132.2936  141.1403  155.5355 C.ar    1  UNL1        0.0328
     24 C         131.7505  140.2412  156.6063 C.ar    1  UNL1        0.1592
     25 F         130.2680  140.0936  156.7810 F       1  UNL1       -0.2025
     26 C         132.6898  139.4898  157.5024 C.ar    1  UNL1        0.1284
     27 N         134.1723  139.6374  157.3277 N.ar    1  UNL1       -0.2399
     28 N         138.4450  142.3624  162.2064 N.ar    1  UNL1       -0.2497
     29 C         139.3324  141.6632  161.2195 C.ar    1  UNL1        0.0944
     30 C         140.0482  142.7094  160.4175 C.ar    1  UNL1        0.0439
     31 C         139.6032  144.0551  160.9087 C.ar    1  UNL1        0.1194
     32 N         138.6124  143.8406  162.0143 N.ar    1  UNL1       -0.1679
     33 C         138.1402  140.9574  164.3704 C.3     1  UNL1        0.0284
     34 C         137.5478  141.6996  163.2093 C.3     1  UNL1        0.1276
     35 C         141.9614  142.9487  160.3892 C.ar    1  UNL1        0.2487
     36 N         142.3961  144.3698  160.5926 N.ar    1  UNL1       -0.1088
     37 N         143.3185  144.4076  161.7749 N.ar    1  UNL1       -0.1009
     38 C         143.4539  143.0099  162.3021 C.ar    1  UNL1        0.2781
     39 O         142.6152  142.1082  161.4457 O.2     1  UNL1       -0.4128
     40 S         144.2826  142.5880  163.4791 S.3     1  UNL1       -0.0544
     41 C         145.5523  141.8185  163.2651 C.3     1  UNL1        0.0789
@<TRIPOS>BOND
     1    33    34    1
     2    34    28    1
     3    28    29   ar
     4    29    30   ar
     5     1    30    1
     6     1    35    1
     7    35    36   ar
     8    36    37   ar
     9    37    38   ar
    10    38    40    1
    11    40    41    1
    12    38    39   ar
    13     1     2    1
    14     2     3    1
    15     3    15    1
    16    15    16   ar
    17    16    17   ar
    18    17    21    1
    19    21    22   ar
    20    22    23   ar
    21    23    24   ar
    22    24    25    1
    23    24    26   ar
    24    26    27   ar
    25    17    18   ar
    26    18    19   ar
    27     3     4    1
    28     4     5    1
    29     5     6    2
    30     6     7    1
    31     7     8    2
    32     8     9    1
    33     9    10    1
    34    10    11    2
    35    11    12    1
    36    12    13    2
    37    30    31   ar
    38    31    32   ar
    39    32    28   ar
    40     6     1    1
    41    13     8    1
    42    39    35   ar
    43    19    15   ar
    44    13     5    1
    45    27    21   ar
    46     2    14    1
    47    19    20    1
@<TRIPOS>MOLECULE
*****
 41 47 0 0 0
SMALL
GASTEIGER

@<TRIPOS>ATOM
      1 C         141.3658  140.2992  159.8908 C.3     1  UNL1        0.1707
      2 N         141.8685  139.0464  159.2368 N.3     1  UNL1       -0.2797
      3 C         142.4504  139.1030  157.8555 C.3     1  UNL1        0.1167
      4 C         142.5296  140.4125  157.1281 C.3     1  UNL1        0.0511
      5 C         142.0268  141.6653  157.7820 C.2     1  UNL1       -0.0037
      6 C         141.4449  141.6086  159.1634 C.2     1  UNL1        0.0800
      7 N         141.0325  142.9981  159.5499 N.2     1  UNL1       -0.2519
      8 C         141.3595  143.9134  158.4074 C.2     1  UNL1        0.0627
      9 C         141.1771  145.3905  158.2209 C.3     1  UNL1        0.0717
     10 C         141.6092  146.0439  156.9417 C.2     1  UNL1       -0.0198
     11 C         142.2237  145.2202  155.8491 C.2     1  UNL1       -0.0042
     12 C         142.4062  143.7431  156.0356 C.2     1  UNL1        0.0006
     13 C         141.9740  143.0897  157.3148 C.2     1  UNL1        0.0111
     14 H         141.0819  138.3981  159.1987 H       1  UNL1        0.1246
     15 C         142.9532  137.8502  157.2014 C.ar    1  UNL1        0.1319
     16 N         142.6452  136.4466  157.6315 N.ar    1  UNL1       -0.2282
     17 C         143.3539  135.5099  156.6984 C.ar    1  UNL1        0.1171
     18 C         144.0998  136.3347  155.6918 C.ar    1  UNL1        0.0942
     19 N         143.8522  137.7811  156.0027 N.ar    1  UNL1       -0.3385
     20 H         144.2158  138.5500  155.5070 H       1  UNL1        0.1672
     21 C         143.3221  134.0115  156.7611 C.ar    1  UNL1        0.1006
     22 C         144.3560  133.2721  157.5576 C.ar    1  UNL1        0.0230
     23 C         144.3243  131.7738  157.6202 C.ar    1  UNL1        0.0328
     24 C         143.2587  131.0149  156.8864 C.ar    1  UNL1        0.1592
     25 F         143.2270  129.5165  156.9490 F       1  UNL1       -0.2025
     26 C         142.2249  131.7543  156.0899 C.ar    1  UNL1        0.1284
     27 N         142.2566  133.2526  156.0272 N.ar    1  UNL1       -0.2399
     28 N         141.1977  138.0549  163.0531 N.ar    1  UNL1       -0.2497
     29 C         141.8212  139.1736  162.2721 C.ar    1  UNL1        0.0944
     30 C         141.0772  139.3050  160.9762 C.ar    1  UNL1        0.0439
     31 C         139.9939  138.2676  160.9564 C.ar    1  UNL1        0.1194
     32 N         140.0684  137.4950  162.2400 N.ar    1  UNL1       -0.1679
     33 C         142.6114  138.3826  165.2081 C.3     1  UNL1        0.0284
     34 C         141.6280  137.5797  164.4092 C.3     1  UNL1        0.1276
     35 C         140.7628  141.2068  160.9217 C.ar    1  UNL1        0.2487
     36 N         141.5193  142.0477  161.9068 N.ar    1  UNL1       -0.1088
     37 N         140.5214  142.7934  162.7424 N.ar    1  UNL1       -0.1009
     38 C         139.1482  142.4133  162.2737 C.ar    1  UNL1        0.2781
     39 O         139.2973  141.4327  161.1484 O.2     1  UNL1       -0.4128
     40 S         137.8531  142.9241  162.8322 S.3     1  UNL1       -0.0544
     41 C         137.7255  144.3636  163.2340 C.3     1  UNL1        0.0789
@<TRIPOS>BOND
     1    33    34    1
     2    34    28    1
     3    28    29   ar
     4    29    30   ar
     5     1    30    1
     6     1    35    1
     7    35    36   ar
     8    36    37   ar
     9    37    38   ar
    10    38    40    1
    11    40    41    1
    12    38    39   ar
    13     1     2    1
    14     2     3    1
    15     3    15    1
    16    15    16   ar
    17    16    17   ar
    18    17    21    1
    19    21    22   ar
    20    22    23   ar
    21    23    24   ar
    22    24    25    1
    23    24    26   ar
    24    26    27   ar
    25    17    18   ar
    26    18    19   ar
    27     3     4    1
    28     4     5    1
    29     5     6    2
    30     6     7    1
    31     7     8    2
    32     8     9    1
    33     9    10    1
    34    10    11    2
    35    11    12    1
    36    12    13    2
    37    30    31   ar
    38    31    32   ar
    39    32    28   ar
    40     6     1    1
    41    13     8    1
    42    39    35   ar
    43    19    15   ar
    44    13     5    1
    45    27    21   ar
    46     2    14    1
    47    19    20    1
@<TRIPOS>MOLECULE
*****
 41 47 0 0 0
SMALL
GASTEIGER

@<TRIPOS>ATOM
      1 C         141.7278  142.0129  160.1085 C.3     1  UNL1        0.1707
      2 N         140.9542  141.5442  158.9119 N.3     1  UNL1       -0.2797
      3 C         139.4587  141.6586  158.8938 C.3     1  UNL1        0.1167
      4 C         138.7368  142.2417  160.0723 C.3     1  UNL1        0.0511
      5 C         139.5103  142.7103  161.2689 C.2     1  UNL1       -0.0037
      6 C         141.0059  142.5959  161.2870 C.2     1  UNL1        0.0800
      7 N         141.4963  143.1381  162.5968 N.2     1  UNL1       -0.2519
      8 C         140.3039  143.5876  163.3881 C.2     1  UNL1        0.0627
      9 C         140.1773  144.2034  164.7500 C.3     1  UNL1        0.0717
     10 C         138.8232  144.5549  165.2911 C.2     1  UNL1       -0.0198
     11 C         137.5958  144.2905  164.4704 C.2     1  UNL1       -0.0042
     12 C         137.7224  143.6747  163.1086 C.2     1  UNL1        0.0006
     13 C         139.0765  143.3232  162.5674 C.2     1  UNL1        0.0111
     14 H         141.1755  140.5564  158.7866 H       1  UNL1        0.1246
     15 C         138.6851  141.1899  157.6971 C.ar    1  UNL1        0.1319
     16 N         137.3975  141.7736  157.1959 N.ar    1  UNL1       -0.2282
     17 C         136.9798  140.9997  155.9806 C.ar    1  UNL1        0.1171
     18 C         138.0094  139.9378  155.7309 C.ar    1  UNL1        0.0942
     19 N         139.0633  140.0553  156.7918 N.ar    1  UNL1       -0.3385
     20 H         139.8628  139.4875  156.8786 H       1  UNL1        0.1672
     21 C         135.7487  141.2448  155.1593 C.ar    1  UNL1        0.1006
     22 C         134.3935  140.9612  155.7364 C.ar    1  UNL1        0.0230
     23 C         133.1625  141.2063  154.9152 C.ar    1  UNL1        0.0328
     24 C         133.2867  141.7349  153.5169 C.ar    1  UNL1        0.1592
     25 F         132.0556  141.9799  152.6956 F       1  UNL1       -0.2025
     26 C         134.6419  142.0184  152.9399 C.ar    1  UNL1        0.1284
     27 N         135.8729  141.7734  153.7611 N.ar    1  UNL1       -0.2399
     28 N         144.7470  141.5087  157.7220 N.ar    1  UNL1       -0.2497
     29 C         143.7741  142.4018  158.4333 C.ar    1  UNL1        0.0944
     30 C         142.8543  141.5349  159.2410 C.ar    1  UNL1        0.0439
     31 C         143.2587  140.1061  159.0289 C.ar    1  UNL1        0.1194
     32 N         144.4285  140.0900  158.0901 N.ar    1  UNL1       -0.1679
     33 C         146.1516  141.1715  155.5625 C.3     1  UNL1        0.0284
     34 C         145.8457  141.9560  156.8038 C.3     1  UNL1        0.1276
     35 C         142.8926  142.3156  161.0039 C.ar    1  UNL1        0.2487
     36 N         143.5819  143.6412  161.1362 N.ar    1  UNL1       -0.1088
     37 N         144.6879  143.4906  162.1383 N.ar    1  UNL1       -0.1009
     38 C         144.6820  142.0719  162.6253 C.ar    1  UNL1        0.2781
     39 O         143.5725  141.3457  161.9242 O.2     1  UNL1       -0.4128
     40 S         145.6210  141.4828  163.6360 S.3     1  UNL1       -0.0544
     41 C         145.2937  140.1731  164.2898 C.3     1  UNL1        0.0789
@<TRIPOS>BOND
     1    33    34    1
     2    34    28    1
     3    28    29   ar
     4    29    30   ar
     5     1    30    1
     6     1    35    1
     7    35    36   ar
     8    36    37   ar
     9    37    38   ar
    10    38    40    1
    11    40    41    1
    12    38    39   ar
    13     1     2    1
    14     2     3    1
    15     3    15    1
    16    15    16   ar
    17    16    17   ar
    18    17    21    1
    19    21    22   ar
    20    22    23   ar
    21    23    24   ar
    22    24    25    1
    23    24    26   ar
    24    26    27   ar
    25    17    18   ar
    26    18    19   ar
    27     3     4    1
    28     4     5    1
    29     5     6    2
    30     6     7    1
    31     7     8    2
    32     8     9    1
    33     9    10    1
    34    10    11    2
    35    11    12    1
    36    12    13    2
    37    30    31   ar
    38    31    32   ar
    39    32    28   ar
    40     6     1    1
    41    13     8    1
    42    39    35   ar
    43    19    15   ar
    44    13     5    1
    45    27    21   ar
    46     2    14    1
    47    19    20    1
@<TRIPOS>MOLECULE
*****
 41 47 0 0 0
SMALL
GASTEIGER

@<TRIPOS>ATOM
      1 C         142.6317  139.9244  159.7903 C.3     1  UNL1        0.1707
      2 N         143.2815  140.4081  158.5279 N.3     1  UNL1       -0.2797
      3 C         144.1784  141.6101  158.5591 C.3     1  UNL1        0.1167
      4 C         144.4254  142.3283  159.8526 C.3     1  UNL1        0.0511
      5 C         143.7756  141.8446  161.1150 C.2     1  UNL1       -0.0037
      6 C         142.8787  140.6426  161.0838 C.2     1  UNL1        0.0800
      7 N         142.3803  140.4000  162.4777 N.2     1  UNL1       -0.2519
      8 C         142.9692  141.4520  163.3702 C.2     1  UNL1        0.0627
      9 C         142.8316  141.7122  164.8410 C.3     1  UNL1        0.0717
     10 C         143.5563  142.8653  165.4696 C.2     1  UNL1       -0.0198
     11 C         144.4186  143.7581  164.6274 C.2     1  UNL1       -0.0042
     12 C         144.5562  143.4978  163.1566 C.2     1  UNL1        0.0006
     13 C         143.8315  142.3448  162.5280 C.2     1  UNL1        0.0111
     14 H         142.5296  140.6187  157.8717 H       1  UNL1        0.1246
     15 C         144.8283  142.0938  157.2966 C.ar    1  UNL1        0.1319
     16 N         146.2814  141.9647  156.9477 N.ar    1  UNL1       -0.2282
     17 C         146.4904  142.5827  155.5970 C.ar    1  UNL1        0.1171
     18 C         145.1665  143.0938  155.1112 C.ar    1  UNL1        0.0942
     19 N         144.1393  142.7916  156.1616 N.ar    1  UNL1       -0.3385
     20 H         143.1810  143.0126  156.1144 H       1  UNL1        0.1672
     21 C         147.7945  142.6736  154.8612 C.ar    1  UNL1        0.1006
     22 C         148.9519  141.8150  155.2774 C.ar    1  UNL1        0.0230
     23 C         150.2559  141.9059  154.5417 C.ar    1  UNL1        0.0328
     24 C         150.4025  142.8554  153.3899 C.ar    1  UNL1        0.1592
     25 F         151.7066  142.9463  152.6541 F       1  UNL1       -0.2025
     26 C         149.2451  143.7140  152.9736 C.ar    1  UNL1        0.1284
     27 N         147.9411  143.6231  153.7093 N.ar    1  UNL1       -0.2399
     28 N         141.9446  137.0479  157.2766 N.ar    1  UNL1       -0.2497
     29 C         142.8748  137.8097  158.1735 C.ar    1  UNL1        0.0944
     30 C         142.0941  138.9167  158.8180 C.ar    1  UNL1        0.0439
     31 C         140.6815  138.8389  158.3194 C.ar    1  UNL1        0.1194
     32 N         140.5891  137.6839  157.3668 N.ar    1  UNL1       -0.1679
     33 C         143.7234  135.6624  155.9857 C.3     1  UNL1        0.0284
     34 C         142.3064  135.8587  156.4370 C.3     1  UNL1        0.1276
     35 C         141.7951  139.0907  160.7151 C.ar    1  UNL1        0.2487
     36 N         142.1809  137.7635  161.2977 N.ar    1  UNL1       -0.1088
     37 N         141.0500  137.2905  162.1623 N.ar    1  UNL1       -0.1009
     38 C         139.9654  138.3254  162.1140 C.ar    1  UNL1        0.2781
     39 O         140.4259  139.4381  161.2196 O.2     1  UNL1       -0.4128
     40 S         138.6510  138.2594  162.8338 S.3     1  UNL1       -0.0544
     41 C         138.6181  138.0272  164.3153 C.3     1  UNL1        0.0789
@<TRIPOS>BOND
     1    33    34    1
     2    34    28    1
     3    28    29   ar
     4    29    30   ar
     5     1    30    1
     6     1    35    1
     7    35    36   ar
     8    36    37   ar
     9    37    38   ar
    10    38    40    1
    11    40    41    1
    12    38    39   ar
    13     1     2    1
    14     2     3    1
    15     3    15    1
    16    15    16   ar
    17    16    17   ar
    18    17    21    1
    19    21    22   ar
    20    22    23   ar
    21    23    24   ar
    22    24    25    1
    23    24    26   ar
    24    26    27   ar
    25    17    18   ar
    26    18    19   ar
    27     3     4    1
    28     4     5    1
    29     5     6    2
    30     6     7    1
    31     7     8    2
    32     8     9    1
    33     9    10    1
    34    10    11    2
    35    11    12    1
    36    12    13    2
    37    30    31   ar
    38    31    32   ar
    39    32    28   ar
    40     6     1    1
    41    13     8    1
    42    39    35   ar
    43    19    15   ar
    44    13     5    1
    45    27    21   ar
    46     2    14    1
    47    19    20    1
@<TRIPOS>MOLECULE
*****
 41 47 0 0 0
SMALL
GASTEIGER

@<TRIPOS>ATOM
      1 C         139.9428  140.2868  160.4630 C.3     1  UNL1        0.1707
      2 N         140.6369  140.2646  161.7925 N.3     1  UNL1       -0.2797
      3 C         141.8461  139.3999  161.9930 C.3     1  UNL1        0.1167
      4 C         142.3611  138.5573  160.8639 C.3     1  UNL1        0.0511
      5 C         141.6670  138.5794  159.5344 C.2     1  UNL1       -0.0037
      6 C         140.4578  139.4442  159.3339 C.2     1  UNL1        0.0800
      7 N         139.9859  139.2608  157.9220 N.2     1  UNL1       -0.2519
      8 C         140.9033  138.2828  157.2498 C.2     1  UNL1        0.0627
      9 C         140.9268  137.7213  155.8591 C.3     1  UNL1        0.0717
     10 C         141.9893  136.7387  155.4649 C.2     1  UNL1       -0.0198
     11 C         143.0283  136.3175  156.4615 C.2     1  UNL1       -0.0042
     12 C         143.0048  136.8790  157.8522 C.2     1  UNL1        0.0006
     13 C         141.9423  137.8616  158.2463 C.2     1  UNL1        0.0111
     14 H         139.9453  139.9678  162.4809 H       1  UNL1        0.1246
     15 C         142.5403  139.3777  163.3226 C.ar    1  UNL1        0.1319
     16 N         141.9640  139.8460  164.6259 N.ar    1  UNL1       -0.2282
     17 C         143.0001  139.6411  165.6910 C.ar    1  UNL1        0.1171
     18 C         144.2166  139.0462  165.0460 C.ar    1  UNL1        0.0942
     19 N         143.9324  138.8834  163.5822 N.ar    1  UNL1       -0.3385
     20 H         144.5510  138.5165  162.9099 H       1  UNL1        0.1672
     21 C         142.8466  139.9729  167.1458 C.ar    1  UNL1        0.1006
     22 C         142.6741  141.3997  167.5755 C.ar    1  UNL1        0.0230
     23 C         142.5206  141.7315  169.0302 C.ar    1  UNL1        0.0328
     24 C         142.5395  140.6366  170.0553 C.ar    1  UNL1        0.1592
     25 F         142.3859  140.9684  171.5101 F       1  UNL1       -0.2025
     26 C         142.7119  139.2099  169.6256 C.ar    1  UNL1        0.1284
     27 N         142.8654  138.8780  168.1709 N.ar    1  UNL1       -0.2399
     28 N         138.3086  143.2521  162.3608 N.ar    1  UNL1       -0.2497
     29 C         139.4655  142.6480  161.6213 C.ar    1  UNL1        0.0944
     30 C         139.0831  141.2537  161.2218 C.ar    1  UNL1        0.0439
     31 C         137.6898  140.9961  161.7143 C.ar    1  UNL1        0.1194
     32 N         137.2112  142.2312  162.4182 N.ar    1  UNL1       -0.1679
     33 C         138.7775  144.8862  164.3254 C.3     1  UNL1        0.0284
     34 C         138.2581  144.6345  162.9409 C.3     1  UNL1        0.1276
     35 C         138.9501  140.6447  159.3969 C.ar    1  UNL1        0.2487
     36 N         137.7322  139.8524  159.0245 N.ar    1  UNL1       -0.1088
     37 N         137.0304  140.5759  157.9135 N.ar    1  UNL1       -0.1009
     38 C         137.8148  141.8153  157.5994 C.ar    1  UNL1        0.2781
     39 O         139.0012  141.8578  158.5162 O.2     1  UNL1       -0.4128
     40 S         137.4727  142.8334  156.5522 S.3     1  UNL1       -0.0544
     41 C         138.1787  142.8146  155.2289 C.3     1  UNL1        0.0789
@<TRIPOS>BOND
     1    33    34    1
     2    34    28    1
     3    28    29   ar
     4    29    30   ar
     5     1    30    1
     6     1    35    1
     7    35    36   ar
     8    36    37   ar
     9    37    38   ar
    10    38    40    1
    11    40    41    1
    12    38    39   ar
    13     1     2    1
    14     2     3    1
    15     3    15    1
    16    15    16   ar
    17    16    17   ar
    18    17    21    1
    19    21    22   ar
    20    22    23   ar
    21    23    24   ar
    22    24    25    1
    23    24    26   ar
    24    26    27   ar
    25    17    18   ar
    26    18    19   ar
    27     3     4    1
    28     4     5    1
    29     5     6    2
    30     6     7    1
    31     7     8    2
    32     8     9    1
    33     9    10    1
    34    10    11    2
    35    11    12    1
    36    12    13    2
    37    30    31   ar
    38    31    32   ar
    39    32    28   ar
    40     6     1    1
    41    13     8    1
    42    39    35   ar
    43    19    15   ar
    44    13     5    1
    45    27    21   ar
    46     2    14    1
    47    19    20    1
