@<TRIPOS>MOLECULE
*****
 41 47 0 0 0
SMALL
GASTEIGER

@<TRIPOS>ATOM
      1 C         139.8463  145.3720  162.4280 C.ar    1  UNL1        0.2400
      2 N         139.5072  146.6324  161.6887 N.ar    1  UNL1       -0.2090
      3 C         139.6350  146.6831  160.1951 C.ar    1  UNL1        0.1021
      4 C         140.0728  145.6534  159.1343 C.ar    1  UNL1        0.0207
      5 C         140.1119  145.1179  160.5350 C.ar    1  UNL1        0.0221
      6 C         140.3131  144.1625  161.6736 C.ar    1  UNL1        0.1178
      7 N         140.6521  142.9021  162.4130 N.pl3   1  UNL1       -0.2104
      8 S         141.0881  141.4890  162.6638 S.O2    1  UNL1        0.0737
      9 O         141.2371  140.6630  163.9069 O.2     1  UNL1       -0.1499
     10 O         140.7258  142.2302  163.9165 O.2     1  UNL1       -0.1499
     11 C         141.5685  140.0934  162.3958 C.ar    1  UNL1        0.1253
     12 C         141.7697  139.1380  163.5345 C.ar    1  UNL1        0.0202
     13 C         142.2501  137.7425  163.2665 C.ar    1  UNL1        0.0015
     14 C         142.5293  137.3025  161.8600 C.ar    1  UNL1        0.0046
     15 C         142.3281  138.2580  160.7213 C.ar    1  UNL1        0.0549
     16 C         141.8477  139.6534  160.9893 C.ar    1  UNL1        0.0247
     17 C         142.7114  137.5662  159.0851 C.2     1  UNL1        0.2493
     18 O         143.1474  136.1530  159.3359 O.2     1  UNL1       -0.2699
     19 N         142.8391  137.6170  157.5914 N.am    1  UNL1       -0.2716
     20 C         143.2769  136.5873  156.5307 C.3     1  UNL1        0.0987
     21 C         143.4047  136.6381  155.0370 C.3     1  UNL1        0.0476
     22 C         143.0656  137.8984  154.2977 C.ar    1  UNL1       -0.0228
     23 C         142.6441  139.6070  152.9004 C.ar    1  UNL1       -0.0045
     24 C         142.1879  141.0333  152.8139 C.ar    1  UNL1       -0.0003
     25 C         141.8238  141.7814  154.0620 C.ar    1  UNL1       -0.0002
     26 C         142.2598  140.3683  154.3128 C.ar    1  UNL1       -0.0029
     27 C         142.5988  139.1080  155.0521 C.ar    1  UNL1       -0.0062
     28 C         142.8000  138.1524  156.1908 C.3     1  UNL1        0.1201
     29 C         141.3434  143.1769  154.3299 C.ar    1  UNL1        0.0030
     30 C         141.4711  143.2277  152.8362 C.ar    1  UNL1        0.0207
     31 C         141.1320  144.4881  152.0969 C.ar    1  UNL1        0.0988
     32 N         140.6653  145.6976  152.8512 N.ar    1  UNL1       -0.2438
     33 C         140.5375  145.6468  154.3450 C.ar    1  UNL1        0.0813
     34 C         140.0330  146.9008  155.3407 C.ar    1  UNL1        0.0191
     35 C         139.8804  146.9267  156.8327 C.ar    1  UNL1        0.0016
     36 C         140.2005  145.7041  157.6407 C.ar    1  UNL1        0.0016
     37 C         140.4797  145.2641  156.2341 C.ar    1  UNL1        0.0015
     38 C         140.8766  144.3865  155.0843 C.ar    1  UNL1        0.0177
     39 H         140.4689  143.1909  163.3362 H       1  UNL1        0.1739
     40 C         138.5008  144.7112  164.5500 C.3     1  UNL1        0.2543
     41 O         139.7185  145.3213  163.9217 O.3     1  UNL1       -0.4553
@<TRIPOS>BOND
     1    40    41    1
     2    41     1    1
     3     1     2   ar
     4     2     3   ar
     5     3     4   ar
     6     4     5   ar
     7     5     6   ar
     8     6     7    1
     9     7     8    1
    10     8     9    2
    11     8    10    2
    12     8    11    1
    13    11    12   ar
    14    12    13   ar
    15    13    14   ar
    16    14    15   ar
    17    15    16   ar
    18    15    17    1
    19    17    18    2
    20    17    19   am
    21    19    20    1
    22    20    21    1
    23    21    22    1
    24    22    23   ar
    25    23    24   ar
    26    24    25   ar
    27    25    26   ar
    28    26    27   ar
    29    27    28    1
    30    25    29    1
    31    29    30   ar
    32    30    31   ar
    33    31    32   ar
    34    32    33   ar
    35    33    34   ar
    36    34    35   ar
    37    35    36   ar
    38    36    37   ar
    39    37    38   ar
    40     6     1   ar
    41    16    11   ar
    42    28    19    1
    43    38    29   ar
    44    36     4    1
    45    27    22   ar
    46    38    33   ar
    47     7    39    1
@<TRIPOS>MOLECULE
*****
 41 47 0 0 0
SMALL
GASTEIGER

@<TRIPOS>ATOM
      1 C         143.3357  136.2104  156.4674 C.ar    1  UNL1        0.2400
      2 N         143.3563  136.2944  154.9699 N.ar    1  UNL1       -0.2090
      3 C         142.9487  137.5647  154.2843 C.ar    1  UNL1        0.1021
      4 C         142.4674  138.9369  154.7967 C.ar    1  UNL1        0.0207
      5 C         142.7618  137.9608  155.8970 C.ar    1  UNL1        0.0221
      6 C         142.9075  137.3968  157.2793 C.ar    1  UNL1        0.1178
      7 N         142.8869  137.3128  158.7768 N.pl3   1  UNL1       -0.2104
      8 S         142.7025  137.7190  160.2089 S.O2    1  UNL1        0.0737
      9 O         142.9006  137.0074  161.5144 O.2     1  UNL1       -0.1499
     10 O         143.1854  136.3079  160.0491 O.2     1  UNL1       -0.1499
     11 C         142.3765  138.5664  161.4029 C.ar    1  UNL1        0.1253
     12 C         142.5222  138.0024  162.7852 C.ar    1  UNL1        0.0202
     13 C         142.1962  138.8498  163.9791 C.ar    1  UNL1        0.0015
     14 C         141.7245  140.2612  163.7909 C.ar    1  UNL1        0.0046
     15 C         141.5789  140.8252  162.4087 C.ar    1  UNL1        0.0549
     16 C         141.9048  139.9778  161.2147 C.ar    1  UNL1        0.0247
     17 C         140.9978  142.5464  162.3584 C.2     1  UNL1        0.2493
     18 O         140.8134  142.9527  163.7905 O.2     1  UNL1       -0.2699
     19 N         140.5902  143.8167  161.6727 N.am    1  UNL1       -0.2716
     20 C         140.1089  145.1889  162.1852 C.3     1  UNL1        0.0987
     21 C         139.7013  146.4592  161.4996 C.3     1  UNL1        0.0476
     22 C         139.7219  146.5432  160.0021 C.ar    1  UNL1       -0.0228
     23 C         139.6396  146.9989  157.8032 C.ar    1  UNL1       -0.0045
     24 C         139.8722  146.4448  156.4289 C.ar    1  UNL1       -0.0003
     25 C         140.3551  145.0346  156.2606 C.ar    1  UNL1       -0.0002
     26 C         140.1707  145.4409  157.6927 C.ar    1  UNL1       -0.0029
     27 C         140.1501  145.3568  159.1902 C.ar    1  UNL1       -0.0062
     28 C         140.2958  144.7928  160.5725 C.3     1  UNL1        0.1201
     29 C         140.6811  144.1872  155.0666 C.ar    1  UNL1        0.0030
     30 C         140.2735  145.4576  154.3809 C.ar    1  UNL1        0.0207
     31 C         140.2941  145.5415  152.8834 C.ar    1  UNL1        0.0988
     32 N         140.7223  144.3552  152.0715 N.ar    1  UNL1       -0.2438
     33 C         141.1299  143.0848  152.7572 C.ar    1  UNL1        0.0813
     34 C         141.6335  141.6700  152.0067 C.ar    1  UNL1        0.0191
     35 C         142.0544  140.3673  152.6197 C.ar    1  UNL1        0.0016
     36 C         142.0598  140.2072  154.1111 C.ar    1  UNL1        0.0016
     37 C         141.5881  141.6186  153.9229 C.ar    1  UNL1        0.0015
     38 C         141.1093  143.0008  154.2547 C.ar    1  UNL1        0.0177
     39 H         143.1965  136.3864  158.9003 H       1  UNL1        0.1739
     40 C         143.0071  133.6646  156.8684 C.3     1  UNL1        0.2543
     41 O         143.7433  134.9401  157.1529 O.3     1  UNL1       -0.4553
@<TRIPOS>BOND
     1    40    41    1
     2    41     1    1
     3     1     2   ar
     4     2     3   ar
     5     3     4   ar
     6     4     5   ar
     7     5     6   ar
     8     6     7    1
     9     7     8    1
    10     8     9    2
    11     8    10    2
    12     8    11    1
    13    11    12   ar
    14    12    13   ar
    15    13    14   ar
    16    14    15   ar
    17    15    16   ar
    18    15    17    1
    19    17    18    2
    20    17    19   am
    21    19    20    1
    22    20    21    1
    23    21    22    1
    24    22    23   ar
    25    23    24   ar
    26    24    25   ar
    27    25    26   ar
    28    26    27   ar
    29    27    28    1
    30    25    29    1
    31    29    30   ar
    32    30    31   ar
    33    31    32   ar
    34    32    33   ar
    35    33    34   ar
    36    34    35   ar
    37    35    36   ar
    38    36    37   ar
    39    37    38   ar
    40     6     1   ar
    41    16    11   ar
    42    28    19    1
    43    38    29   ar
    44    36     4    1
    45    27    22   ar
    46    38    33   ar
    47     7    39    1
@<TRIPOS>MOLECULE
*****
 41 47 0 0 0
SMALL
GASTEIGER

@<TRIPOS>ATOM
      1 C         143.8594  140.0766  162.2864 C.ar    1  UNL1        0.2400
      2 N         144.3259  138.6566  162.4118 N.ar    1  UNL1       -0.2090
      3 C         144.0473  137.6757  161.3116 C.ar    1  UNL1        0.1021
      4 C         143.3280  137.7856  159.9524 C.ar    1  UNL1        0.0207
      5 C         143.3505  139.0745  160.7194 C.ar    1  UNL1        0.0221
      6 C         143.1142  140.5159  161.0608 C.ar    1  UNL1        0.1178
      7 N         142.6477  141.9359  160.9355 N.pl3   1  UNL1       -0.2104
      8 S         142.0072  143.1634  160.3584 S.O2    1  UNL1        0.0737
      9 O         141.8555  144.5728  160.8489 O.2     1  UNL1       -0.1499
     10 O         142.6243  143.3931  161.7062 O.2     1  UNL1       -0.1499
     11 C         141.2699  144.0503  159.3992 C.ar    1  UNL1        0.1253
     12 C         141.0336  145.4917  159.7407 C.ar    1  UNL1        0.0202
     13 C         140.2964  146.3785  158.7815 C.ar    1  UNL1        0.0015
     14 C         139.7953  145.8239  157.4810 C.ar    1  UNL1        0.0046
     15 C         140.0316  144.3825  157.1396 C.ar    1  UNL1        0.0549
     16 C         140.7688  143.4957  158.0987 C.ar    1  UNL1        0.0247
     17 C         139.3607  143.8736  155.5291 C.2     1  UNL1        0.2493
     18 O         138.7201  145.1010  154.9520 O.2     1  UNL1       -0.2699
     19 N         139.0822  142.8926  154.4290 N.am    1  UNL1       -0.2716
     20 C         138.3628  143.0025  153.0697 C.3     1  UNL1        0.0987
     21 C         138.0842  142.0217  151.9696 C.3     1  UNL1        0.0476
     22 C         138.5507  140.6016  152.0950 C.ar    1  UNL1       -0.0228
     23 C         139.1030  138.4272  151.9668 C.ar    1  UNL1       -0.0045
     24 C         139.7833  137.2934  152.6750 C.ar    1  UNL1       -0.0003
     25 C         140.4029  137.5149  154.0230 C.ar    1  UNL1       -0.0002
     26 C         139.7624  138.7423  153.4459 C.ar    1  UNL1       -0.0029
     27 C         139.2959  140.1624  153.3205 C.ar    1  UNL1       -0.0062
     28 C         139.0596  141.6038  153.6619 C.3     1  UNL1        0.1201
     29 C         141.1402  136.6281  154.9821 C.ar    1  UNL1        0.0030
     30 C         140.8616  135.6471  153.8819 C.ar    1  UNL1        0.0207
     31 C         141.3282  134.2271  154.0074 C.ar    1  UNL1        0.0988
     32 N         142.0733  133.7878  155.2328 N.ar    1  UNL1       -0.2438
     33 C         142.3518  134.7688  156.3330 C.ar    1  UNL1        0.0813
     34 C         143.1677  134.4482  157.7648 C.ar    1  UNL1        0.0191
     35 C         143.4835  135.3699  158.9053 C.ar    1  UNL1        0.0016
     36 C         143.0494  136.8048  158.8523 C.ar    1  UNL1        0.0016
     37 C         142.5484  136.2502  157.5517 C.ar    1  UNL1        0.0015
     38 C         141.8853  136.1888  156.2077 C.ar    1  UNL1        0.0177
     39 H         142.9766  142.2999  161.7891 H       1  UNL1        0.1739
     40 C         145.4965  141.6813  163.5090 C.3     1  UNL1        0.2543
     41 O         144.1379  141.0575  163.3865 O.3     1  UNL1       -0.4553
@<TRIPOS>BOND
     1    40    41    1
     2    41     1    1
     3     1     2   ar
     4     2     3   ar
     5     3     4   ar
     6     4     5   ar
     7     5     6   ar
     8     6     7    1
     9     7     8    1
    10     8     9    2
    11     8    10    2
    12     8    11    1
    13    11    12   ar
    14    12    13   ar
    15    13    14   ar
    16    14    15   ar
    17    15    16   ar
    18    15    17    1
    19    17    18    2
    20    17    19   am
    21    19    20    1
    22    20    21    1
    23    21    22    1
    24    22    23   ar
    25    23    24   ar
    26    24    25   ar
    27    25    26   ar
    28    26    27   ar
    29    27    28    1
    30    25    29    1
    31    29    30   ar
    32    30    31   ar
    33    31    32   ar
    34    32    33   ar
    35    33    34   ar
    36    34    35   ar
    37    35    36   ar
    38    36    37   ar
    39    37    38   ar
    40     6     1   ar
    41    16    11   ar
    42    28    19    1
    43    38    29   ar
    44    36     4    1
    45    27    22   ar
    46    38    33   ar
    47     7    39    1
@<TRIPOS>MOLECULE
*****
 41 47 0 0 0
SMALL
GASTEIGER

@<TRIPOS>ATOM
      1 C         142.9573  138.4005  162.3160 C.ar    1  UNL1        0.2400
      2 N         143.3842  137.1747  161.5643 N.ar    1  UNL1       -0.2090
      3 C         143.3056  137.1480  160.0667 C.ar    1  UNL1        0.1021
      4 C         142.8478  138.1753  159.0121 C.ar    1  UNL1        0.0207
      5 C         142.7375  138.6793  160.4206 C.ar    1  UNL1        0.0221
      6 C         142.4517  139.5996  161.5700 C.ar    1  UNL1        0.1178
      7 N         142.0247  140.8255  162.3217 N.pl3   1  UNL1       -0.2104
      8 S         141.5082  142.2089  162.5850 S.O2    1  UNL1        0.0737
      9 O         141.2780  143.0006  163.8380 O.2     1  UNL1       -0.1499
     10 O         141.8697  141.4619  163.8345 O.2     1  UNL1       -0.1499
     11 C         140.9643  143.5831  162.3281 C.ar    1  UNL1        0.1253
     12 C         140.6784  144.5034  163.4775 C.ar    1  UNL1        0.0202
     13 C         140.1346  145.8775  163.2207 C.ar    1  UNL1        0.0015
     14 C         139.8766  146.3312  161.8144 C.ar    1  UNL1        0.0046
     15 C         140.1624  145.4109  160.6650 C.ar    1  UNL1        0.0549
     16 C         140.7062  144.0368  160.9219 C.ar    1  UNL1        0.0247
     17 C         139.7944  146.1153  159.0307 C.2     1  UNL1        0.2493
     18 O         139.2778  147.4987  159.2939 O.2     1  UNL1       -0.2699
     19 N         139.7158  146.0885  157.5330 N.am    1  UNL1       -0.2716
     20 C         139.2579  147.1158  156.4784 C.3     1  UNL1        0.0987
     21 C         139.1793  147.0891  154.9807 C.3     1  UNL1        0.0476
     22 C         139.6062  145.8633  154.2290 C.ar    1  UNL1       -0.0228
     23 C         140.1592  144.2075  152.8140 C.ar    1  UNL1       -0.0045
     24 C         140.6915  142.8086  152.7152 C.ar    1  UNL1       -0.0003
     25 C         141.0553  142.0549  153.9601 C.ar    1  UNL1       -0.0002
     26 C         140.5388  143.4383  154.2233 C.ar    1  UNL1       -0.0029
     27 C         140.1118  144.6641  154.9750 C.ar    1  UNL1       -0.0062
     28 C         139.8260  145.5846  156.1245 C.3     1  UNL1        0.1201
     29 C         141.5992  140.6808  154.2169 C.ar    1  UNL1        0.0030
     30 C         141.5206  140.6540  152.7192 C.ar    1  UNL1        0.0207
     31 C         141.9475  139.4282  151.9675 C.ar    1  UNL1        0.0988
     32 N         142.4531  138.2291  152.7135 N.ar    1  UNL1       -0.2438
     33 C         142.5317  138.2559  154.2113 C.ar    1  UNL1        0.0813
     34 C         143.0699  137.0094  155.1988 C.ar    1  UNL1        0.0191
     35 C         143.1773  136.9609  156.6942 C.ar    1  UNL1        0.0016
     36 C         142.7691  138.1486  157.5144 C.ar    1  UNL1        0.0016
     37 C         142.5111  138.6023  156.1082 C.ar    1  UNL1        0.0015
     38 C         142.1048  139.4817  154.9630 C.ar    1  UNL1        0.0177
     39 H         142.1941  140.5277  163.2447 H       1  UNL1        0.1739
     40 C         141.8587  137.9910  164.6345 C.3     1  UNL1        0.2543
     41 O         143.0359  138.4272  163.8137 O.3     1  UNL1       -0.4553
@<TRIPOS>BOND
     1    40    41    1
     2    41     1    1
     3     1     2   ar
     4     2     3   ar
     5     3     4   ar
     6     4     5   ar
     7     5     6   ar
     8     6     7    1
     9     7     8    1
    10     8     9    2
    11     8    10    2
    12     8    11    1
    13    11    12   ar
    14    12    13   ar
    15    13    14   ar
    16    14    15   ar
    17    15    16   ar
    18    15    17    1
    19    17    18    2
    20    17    19   am
    21    19    20    1
    22    20    21    1
    23    21    22    1
    24    22    23   ar
    25    23    24   ar
    26    24    25   ar
    27    25    26   ar
    28    26    27   ar
    29    27    28    1
    30    25    29    1
    31    29    30   ar
    32    30    31   ar
    33    31    32   ar
    34    32    33   ar
    35    33    34   ar
    36    34    35   ar
    37    35    36   ar
    38    36    37   ar
    39    37    38   ar
    40     6     1   ar
    41    16    11   ar
    42    28    19    1
    43    38    29   ar
    44    36     4    1
    45    27    22   ar
    46    38    33   ar
    47     7    39    1
@<TRIPOS>MOLECULE
*****
 41 47 0 0 0
SMALL
GASTEIGER

@<TRIPOS>ATOM
      1 C         143.0188  134.8790  157.6779 C.ar    1  UNL1        0.2400
      2 N         142.4559  134.3501  156.3921 N.ar    1  UNL1       -0.2090
      3 C         141.6488  135.2473  155.5014 C.ar    1  UNL1        0.1021
      4 C         141.2166  136.7242  155.5979 C.ar    1  UNL1        0.0207
      5 C         142.0380  136.2671  156.7668 C.ar    1  UNL1        0.0221
      6 C         142.7746  136.3054  158.0729 C.ar    1  UNL1        0.1178
      7 N         143.3375  136.8344  159.3587 N.pl3   1  UNL1       -0.2104
      8 S         143.6588  137.7903  160.4691 S.O2    1  UNL1        0.0737
      9 O         144.4343  137.6610  161.7466 O.2     1  UNL1       -0.1499
     10 O         144.2321  136.4203  160.6801 O.2     1  UNL1       -0.1499
     11 C         143.6999  139.0579  161.2702 C.ar    1  UNL1        0.1253
     12 C         144.4364  139.0962  162.5763 C.ar    1  UNL1        0.0202
     13 C         144.4775  140.3637  163.3773 C.ar    1  UNL1        0.0015
     14 C         143.7819  141.5929  162.8721 C.ar    1  UNL1        0.0046
     15 C         143.0454  141.5547  161.5660 C.ar    1  UNL1        0.0549
     16 C         143.0043  140.2871  160.7650 C.ar    1  UNL1        0.0247
     17 C         142.2601  143.1264  161.1015 C.2     1  UNL1        0.2493
     18 O         142.5814  144.0824  162.2119 O.2     1  UNL1       -0.2699
     19 N         141.4529  144.0236  160.2107 N.am    1  UNL1       -0.2716
     20 C         141.0208  145.5005  160.3072 C.3     1  UNL1        0.0987
     21 C         140.2137  146.3977  159.4165 C.3     1  UNL1        0.0476
     22 C         139.6507  145.8687  158.1307 C.ar    1  UNL1       -0.0228
     23 C         138.6759  145.3994  156.1612 C.ar    1  UNL1       -0.0045
     24 C         138.4409  144.3300  155.1359 C.ar    1  UNL1       -0.0003
     25 C         139.0107  142.9575  155.3395 C.ar    1  UNL1       -0.0002
     26 C         139.3320  143.9134  156.4499 C.ar    1  UNL1       -0.0029
     27 C         139.8950  144.4424  157.7357 C.ar    1  UNL1       -0.0062
     28 C         140.6316  144.4807  159.0419 C.3     1  UNL1        0.1201
     29 C         138.9697  141.6900  154.5385 C.ar    1  UNL1        0.0030
     30 C         138.1625  142.5872  153.6477 C.ar    1  UNL1        0.0207
     31 C         137.5996  142.0582  152.3619 C.ar    1  UNL1        0.0988
     32 N         137.8438  140.6319  151.9668 N.ar    1  UNL1       -0.2438
     33 C         138.6510  139.7347  152.8577 C.ar    1  UNL1        0.0813
     34 C         139.0187  138.1220  152.5705 C.ar    1  UNL1        0.0191
     35 C         139.8147  137.1653  153.4078 C.ar    1  UNL1        0.0016
     36 C         140.4095  137.6214  154.7072 C.ar    1  UNL1        0.0016
     37 C         139.7139  138.8507  154.2020 C.ar    1  UNL1        0.0015
     38 C         139.2139  140.2636  154.1435 C.ar    1  UNL1        0.0177
     39 H         143.7940  136.0275  159.6903 H       1  UNL1        0.1739
     40 C         144.7240  132.9407  157.9691 C.3     1  UNL1        0.2543
     41 O         143.8259  133.9818  158.5686 O.3     1  UNL1       -0.4553
@<TRIPOS>BOND
     1    40    41    1
     2    41     1    1
     3     1     2   ar
     4     2     3   ar
     5     3     4   ar
     6     4     5   ar
     7     5     6   ar
     8     6     7    1
     9     7     8    1
    10     8     9    2
    11     8    10    2
    12     8    11    1
    13    11    12   ar
    14    12    13   ar
    15    13    14   ar
    16    14    15   ar
    17    15    16   ar
    18    15    17    1
    19    17    18    2
    20    17    19   am
    21    19    20    1
    22    20    21    1
    23    21    22    1
    24    22    23   ar
    25    23    24   ar
    26    24    25   ar
    27    25    26   ar
    28    26    27   ar
    29    27    28    1
    30    25    29    1
    31    29    30   ar
    32    30    31   ar
    33    31    32   ar
    34    32    33   ar
    35    33    34   ar
    36    34    35   ar
    37    35    36   ar
    38    36    37   ar
    39    37    38   ar
    40     6     1   ar
    41    16    11   ar
    42    28    19    1
    43    38    29   ar
    44    36     4    1
    45    27    22   ar
    46    38    33   ar
    47     7    39    1
@<TRIPOS>MOLECULE
*****
 41 47 0 0 0
SMALL
GASTEIGER

@<TRIPOS>ATOM
      1 C         139.4518  146.8659  155.7555 C.ar    1  UNL1        0.2400
      2 N         139.1920  147.7579  156.9331 N.ar    1  UNL1       -0.2090
      3 C         139.4237  147.2491  158.3250 C.ar    1  UNL1        0.1021
      4 C         139.9113  145.9007  158.8918 C.ar    1  UNL1        0.0207
      5 C         139.8420  145.9261  157.3935 C.ar    1  UNL1        0.0221
      6 C         139.9433  145.4650  155.9698 C.ar    1  UNL1        0.1178
      7 N         140.2031  144.5730  154.7922 N.pl3   1  UNL1       -0.2104
      8 S         140.5900  143.3577  154.0028 S.O2    1  UNL1        0.0737
      9 O         140.6348  143.0553  152.5342 O.2     1  UNL1       -0.1499
     10 O         140.1581  144.5103  153.1454 O.2     1  UNL1       -0.1499
     11 C         141.0575  141.9655  153.6967 C.ar    1  UNL1        0.1253
     12 C         141.1588  141.5045  152.2729 C.ar    1  UNL1        0.0202
     13 C         141.6262  140.1124  151.9669 C.ar    1  UNL1        0.0015
     14 C         141.9923  139.1815  153.0846 C.ar    1  UNL1        0.0046
     15 C         141.8910  139.6426  154.5084 C.ar    1  UNL1        0.0549
     16 C         141.4236  141.0346  154.8144 C.ar    1  UNL1        0.0247
     17 C         142.3714  138.3930  155.7374 C.2     1  UNL1        0.2493
     18 O         142.7584  137.1776  154.9480 O.2     1  UNL1       -0.2699
     19 N         142.6031  137.8842  157.1293 N.am    1  UNL1       -0.2716
     20 C         143.0908  136.5358  157.6961 C.3     1  UNL1        0.0987
     21 C         143.3225  136.0269  159.0879 C.3     1  UNL1        0.0476
     22 C         143.0627  136.9189  160.2656 C.ar    1  UNL1       -0.0228
     23 C         142.7758  137.9812  162.2248 C.ar    1  UNL1       -0.0045
     24 C         142.3577  139.2699  162.8686 C.ar    1  UNL1       -0.0003
     25 C         141.9244  140.4272  162.0183 C.ar    1  UNL1       -0.0002
     26 C         142.3113  139.2118  161.2289 C.ar    1  UNL1       -0.0029
     27 C         142.5711  138.3198  160.0513 C.ar    1  UNL1       -0.0062
     28 C         142.6725  137.8587  158.6275 C.3     1  UNL1        0.1201
     29 C         141.4570  141.8192  162.3243 C.ar    1  UNL1        0.0030
     30 C         141.6887  141.3104  163.7163 C.ar    1  UNL1        0.0207
     31 C         141.4288  142.2024  164.8939 C.ar    1  UNL1        0.0988
     32 N         140.9373  143.6033  164.6797 N.ar    1  UNL1       -0.2438
     33 C         140.7056  144.1122  163.2877 C.ar    1  UNL1        0.0813
     34 C         140.1607  145.6440  162.8694 C.ar    1  UNL1        0.0191
     35 C         139.9060  146.2233  161.5094 C.ar    1  UNL1        0.0016
     36 C         140.1430  145.3918  160.2836 C.ar    1  UNL1        0.0016
     37 C         140.5091  144.4609  161.4013 C.ar    1  UNL1        0.0015
     38 C         140.9654  143.2202  162.1101 C.ar    1  UNL1        0.0177
     39 H         139.9628  145.1840  154.0586 H       1  UNL1        0.1739
     40 C         140.0917  148.4615  153.8076 C.3     1  UNL1        0.2543
     41 O         139.2201  147.3748  154.3637 O.3     1  UNL1       -0.4553
@<TRIPOS>BOND
     1    40    41    1
     2    41     1    1
     3     1     2   ar
     4     2     3   ar
     5     3     4   ar
     6     4     5   ar
     7     5     6   ar
     8     6     7    1
     9     7     8    1
    10     8     9    2
    11     8    10    2
    12     8    11    1
    13    11    12   ar
    14    12    13   ar
    15    13    14   ar
    16    14    15   ar
    17    15    16   ar
    18    15    17    1
    19    17    18    2
    20    17    19   am
    21    19    20    1
    22    20    21    1
    23    21    22    1
    24    22    23   ar
    25    23    24   ar
    26    24    25   ar
    27    25    26   ar
    28    26    27   ar
    29    27    28    1
    30    25    29    1
    31    29    30   ar
    32    30    31   ar
    33    31    32   ar
    34    32    33   ar
    35    33    34   ar
    36    34    35   ar
    37    35    36   ar
    38    36    37   ar
    39    37    38   ar
    40     6     1   ar
    41    16    11   ar
    42    28    19    1
    43    38    29   ar
    44    36     4    1
    45    27    22   ar
    46    38    33   ar
    47     7    39    1
@<TRIPOS>MOLECULE
*****
 41 47 0 0 0
SMALL
GASTEIGER

@<TRIPOS>ATOM
      1 C         142.9727  135.0113  157.9664 C.ar    1  UNL1        0.2400
      2 N         143.7316  135.0323  159.2601 N.ar    1  UNL1       -0.2090
      3 C         143.8333  136.3037  160.0494 C.ar    1  UNL1        0.1021
      4 C         143.2941  137.7315  159.8309 C.ar    1  UNL1        0.0207
      5 C         142.9189  136.7795  158.7340 C.ar    1  UNL1        0.0221
      6 C         142.3154  136.2618  157.4621 C.ar    1  UNL1        0.1178
      7 N         141.5565  136.2408  156.1685 N.pl3   1  UNL1       -0.2104
      8 S         140.7336  136.7192  155.0091 S.O2    1  UNL1        0.0737
      9 O         140.1993  136.0470  153.7792 O.2     1  UNL1       -0.1499
     10 O         141.0979  135.2668  154.9200 O.2     1  UNL1       -0.1499
     11 C         139.9460  137.6391  154.1239 C.ar    1  UNL1        0.1253
     12 C         139.3425  137.1214  152.8520 C.ar    1  UNL1        0.0202
     13 C         138.5550  138.0412  151.9668 C.ar    1  UNL1        0.0015
     14 C         138.3709  139.4788  152.3536 C.ar    1  UNL1        0.0046
     15 C         138.9743  139.9965  153.6255 C.ar    1  UNL1        0.0549
     16 C         139.7619  139.0766  154.5106 C.ar    1  UNL1        0.0247
     17 C         138.6569  141.7573  153.9438 C.2     1  UNL1        0.2493
     18 O         137.8340  142.2357  152.7845 O.2     1  UNL1       -0.2699
     19 N         138.7587  143.0287  154.7332 N.am    1  UNL1       -0.2716
     20 C         138.2194  144.4565  154.5147 C.3     1  UNL1        0.0987
     21 C         138.3211  145.7279  155.3040 C.3     1  UNL1        0.0476
     22 C         139.0800  145.7489  156.5977 C.ar    1  UNL1       -0.0228
     23 C         140.1281  146.1201  158.5504 C.ar    1  UNL1       -0.0045
     24 C         140.9506  145.4928  159.6367 C.ar    1  UNL1       -0.0003
     25 C         141.3191  144.0411  159.5550 C.ar    1  UNL1       -0.0002
     26 C         140.4963  144.5194  158.3956 C.ar    1  UNL1       -0.0029
     27 C         139.7373  144.4984  157.1020 C.ar    1  UNL1       -0.0062
     28 C         139.1338  143.9807  155.8300 C.3     1  UNL1        0.1201
     29 C         142.1067  143.1212  160.4401 C.ar    1  UNL1        0.0030
     30 C         142.2084  144.3927  161.2296 C.ar    1  UNL1        0.0207
     31 C         142.9674  144.4136  162.5232 C.ar    1  UNL1        0.0988
     32 N         143.6246  143.1631  163.0275 N.ar    1  UNL1       -0.2438
     33 C         143.5229  141.8917  162.2381 C.ar    1  UNL1        0.0813
     34 C         144.1939  140.4099  162.6533 C.ar    1  UNL1        0.0191
     35 C         144.1364  139.1021  161.9209 C.ar    1  UNL1        0.0016
     36 C         143.3957  139.0029  160.6202 C.ar    1  UNL1        0.0016
     37 C         143.2116  140.4405  161.0069 C.ar    1  UNL1        0.0015
     38 C         142.7640  141.8707  160.9444 C.ar    1  UNL1        0.0177
     39 H         141.6773  135.2973  155.9146 H       1  UNL1        0.1739
     40 C         144.0931  133.1594  156.5294 C.3     1  UNL1        0.2543
     41 O         142.8710  133.7399  157.1771 O.3     1  UNL1       -0.4553
@<TRIPOS>BOND
     1    40    41    1
     2    41     1    1
     3     1     2   ar
     4     2     3   ar
     5     3     4   ar
     6     4     5   ar
     7     5     6   ar
     8     6     7    1
     9     7     8    1
    10     8     9    2
    11     8    10    2
    12     8    11    1
    13    11    12   ar
    14    12    13   ar
    15    13    14   ar
    16    14    15   ar
    17    15    16   ar
    18    15    17    1
    19    17    18    2
    20    17    19   am
    21    19    20    1
    22    20    21    1
    23    21    22    1
    24    22    23   ar
    25    23    24   ar
    26    24    25   ar
    27    25    26   ar
    28    26    27   ar
    29    27    28    1
    30    25    29    1
    31    29    30   ar
    32    30    31   ar
    33    31    32   ar
    34    32    33   ar
    35    33    34   ar
    36    34    35   ar
    37    35    36   ar
    38    36    37   ar
    39    37    38   ar
    40     6     1   ar
    41    16    11   ar
    42    28    19    1
    43    38    29   ar
    44    36     4    1
    45    27    22   ar
    46    38    33   ar
    47     7    39    1
@<TRIPOS>MOLECULE
*****
 41 47 0 0 0
SMALL
GASTEIGER

@<TRIPOS>ATOM
      1 C         143.7607  141.1631  162.4919 C.ar    1  UNL1        0.2400
      2 N         143.5136  142.6089  162.8058 N.ar    1  UNL1       -0.2090
      3 C         142.7475  143.4653  161.8417 C.ar    1  UNL1        0.1021
      4 C         142.0895  143.1918  160.4745 C.ar    1  UNL1        0.0207
      5 C         142.7557  141.9851  161.0661 C.ar    1  UNL1        0.0221
      6 C         143.2417  140.5737  161.2139 C.ar    1  UNL1        0.1178
      7 N         143.4888  139.1279  160.9000 N.pl3   1  UNL1       -0.2104
      8 S         143.4672  137.8220  160.1622 S.O2    1  UNL1        0.0737
      9 O         144.0210  136.4608  160.4626 O.2     1  UNL1       -0.1499
     10 O         144.1936  137.7521  161.4728 O.2     1  UNL1       -0.1499
     11 C         143.1795  136.8136  159.0897 C.ar    1  UNL1        0.1253
     12 C         143.6655  135.4022  159.2374 C.ar    1  UNL1        0.0202
     13 C         143.3778  134.3938  158.1649 C.ar    1  UNL1        0.0015
     14 C         142.6042  134.7968  156.9446 C.ar    1  UNL1        0.0046
     15 C         142.1182  136.2082  156.7968 C.ar    1  UNL1        0.0549
     16 C         142.4059  137.2165  157.8694 C.ar    1  UNL1        0.0247
     17 C         141.1990  136.5280  155.2621 C.2     1  UNL1        0.2493
     18 O         141.1774  135.2222  154.5243 O.2     1  UNL1       -0.2699
     19 N         140.4329  137.3846  154.2980 N.am    1  UNL1       -0.2716
     20 C         139.7748  137.1111  152.9308 C.3     1  UNL1        0.0987
     21 C         139.0087  137.9675  151.9668 C.3     1  UNL1        0.0476
     22 C         138.7616  139.4133  152.2806 C.ar    1  UNL1       -0.0228
     23 C         138.2226  141.5888  152.4427 C.ar    1  UNL1       -0.0045
     24 C         138.3304  142.8160  153.2984 C.ar    1  UNL1       -0.0003
     25 C         139.0552  142.7543  154.6103 C.ar    1  UNL1       -0.0002
     26 C         139.0336  141.4485  153.8726 C.ar    1  UNL1       -0.0029
     27 C         139.2807  140.0027  153.5587 C.ar    1  UNL1       -0.0062
     28 C         139.7667  138.5912  153.7064 C.3     1  UNL1        0.1201
     29 C         139.3428  143.7627  155.6828 C.ar    1  UNL1        0.0030
     30 C         138.5767  144.6193  154.7187 C.ar    1  UNL1        0.0207
     31 C         138.3296  146.0651  155.0327 C.ar    1  UNL1        0.0988
     32 N         138.8486  146.6545  156.3106 N.ar    1  UNL1       -0.2438
     33 C         139.6148  145.7979  157.2747 C.ar    1  UNL1        0.0813
     34 C         140.2632  146.2924  158.7422 C.ar    1  UNL1        0.0191
     35 C         141.0367  145.5003  159.7543 C.ar    1  UNL1        0.0016
     36 C         141.3233  144.0483  159.5104 C.ar    1  UNL1        0.0016
     37 C         140.5497  144.4512  158.2901 C.ar    1  UNL1        0.0015
     38 C         139.8619  144.3521  156.9609 C.ar    1  UNL1        0.0177
     39 H         143.9966  138.8634  161.7009 H       1  UNL1        0.1739
     40 C         143.8786  139.8437  164.7269 C.3     1  UNL1        0.2543
     41 O         144.5269  140.3066  163.4559 O.3     1  UNL1       -0.4553
@<TRIPOS>BOND
     1    40    41    1
     2    41     1    1
     3     1     2   ar
     4     2     3   ar
     5     3     4   ar
     6     4     5   ar
     7     5     6   ar
     8     6     7    1
     9     7     8    1
    10     8     9    2
    11     8    10    2
    12     8    11    1
    13    11    12   ar
    14    12    13   ar
    15    13    14   ar
    16    14    15   ar
    17    15    16   ar
    18    15    17    1
    19    17    18    2
    20    17    19   am
    21    19    20    1
    22    20    21    1
    23    21    22    1
    24    22    23   ar
    25    23    24   ar
    26    24    25   ar
    27    25    26   ar
    28    26    27   ar
    29    27    28    1
    30    25    29    1
    31    29    30   ar
    32    30    31   ar
    33    31    32   ar
    34    32    33   ar
    35    33    34   ar
    36    34    35   ar
    37    35    36   ar
    38    36    37   ar
    39    37    38   ar
    40     6     1   ar
    41    16    11   ar
    42    28    19    1
    43    38    29   ar
    44    36     4    1
    45    27    22   ar
    46    38    33   ar
    47     7    39    1
@<TRIPOS>MOLECULE
*****
 41 47 0 0 0
SMALL
GASTEIGER

@<TRIPOS>ATOM
      1 C         139.8969  145.7934  154.2460 C.ar    1  UNL1        0.2400
      2 N         140.0443  145.1778  152.8861 N.ar    1  UNL1       -0.2090
      3 C         140.4872  143.7509  152.7529 C.ar    1  UNL1        0.1021
      4 C         140.8636  142.6594  153.7747 C.ar    1  UNL1        0.0207
      5 C         140.4767  143.9617  154.4107 C.ar    1  UNL1        0.0221
      6 C         140.1924  144.9821  155.4726 C.ar    1  UNL1        0.1178
      7 N         140.0450  145.5978  156.8325 N.pl3   1  UNL1       -0.2104
      8 S         140.0523  145.7343  158.3262 S.O2    1  UNL1        0.0737
      9 O         139.7293  146.8644  159.2582 O.2     1  UNL1       -0.1499
     10 O         139.6353  146.9886  157.6170 O.2     1  UNL1       -0.1499
     11 C         140.2134  145.3753  159.7737 C.ar    1  UNL1        0.1253
     12 C         139.9291  146.3958  160.8357 C.ar    1  UNL1        0.0202
     13 C         140.0902  146.0368  162.2831 C.ar    1  UNL1        0.0015
     14 C         140.5356  144.6573  162.6686 C.ar    1  UNL1        0.0046
     15 C         140.8199  143.6368  161.6067 C.ar    1  UNL1        0.0549
     16 C         140.6588  143.9958  160.1592 C.ar    1  UNL1        0.0247
     17 C         141.3484  142.0188  162.2436 C.2     1  UNL1        0.2493
     18 O         141.3557  142.1554  163.7373 O.2     1  UNL1       -0.2699
     19 N         141.7913  140.5919  162.1102 N.am    1  UNL1       -0.2716
     20 C         142.1677  139.5004  163.1320 C.3     1  UNL1        0.0987
     21 C         142.6106  138.0736  162.9988 C.3     1  UNL1        0.0476
     22 C         142.7580  137.4579  161.6389 C.ar    1  UNL1       -0.0228
     23 C         143.0757  136.2450  159.7742 C.ar    1  UNL1       -0.0045
     24 C         143.0186  136.2667  158.2754 C.ar    1  UNL1       -0.0003
     25 C         142.6026  137.5170  157.5587 C.ar    1  UNL1       -0.0002
     26 C         142.6099  137.6535  159.0524 C.ar    1  UNL1       -0.0029
     27 C         142.4625  138.2692  160.4123 C.ar    1  UNL1       -0.0062
     28 C         142.1782  139.2897  161.4743 C.3     1  UNL1        0.1201
     29 C         142.4415  137.8760  156.1113 C.ar    1  UNL1        0.0030
     30 C         142.8844  136.4490  155.9779 C.ar    1  UNL1        0.0207
     31 C         143.0318  135.8335  154.6180 C.ar    1  UNL1        0.0988
     32 N         142.7363  136.6447  153.3914 N.ar    1  UNL1       -0.2438
     33 C         142.2935  138.0717  153.5248 C.ar    1  UNL1        0.0813
     34 C         141.9234  139.1174  152.2646 C.ar    1  UNL1        0.0191
     35 C         141.4766  140.5483  152.3174 C.ar    1  UNL1        0.0016
     36 C         141.3065  141.2325  153.6414 C.ar    1  UNL1        0.0016
     37 C         141.7519  139.8530  154.0269 C.ar    1  UNL1        0.0015
     38 C         142.1461  138.6874  154.8846 C.ar    1  UNL1        0.0177
     39 H         139.7527  146.5032  156.5795 H       1  UNL1        0.1739
     40 C         140.2242  148.3116  153.6966 C.3     1  UNL1        0.2543
     41 O         139.4541  147.2203  154.3793 O.3     1  UNL1       -0.4553
@<TRIPOS>BOND
     1    40    41    1
     2    41     1    1
     3     1     2   ar
     4     2     3   ar
     5     3     4   ar
     6     4     5   ar
     7     5     6   ar
     8     6     7    1
     9     7     8    1
    10     8     9    2
    11     8    10    2
    12     8    11    1
    13    11    12   ar
    14    12    13   ar
    15    13    14   ar
    16    14    15   ar
    17    15    16   ar
    18    15    17    1
    19    17    18    2
    20    17    19   am
    21    19    20    1
    22    20    21    1
    23    21    22    1
    24    22    23   ar
    25    23    24   ar
    26    24    25   ar
    27    25    26   ar
    28    26    27   ar
    29    27    28    1
    30    25    29    1
    31    29    30   ar
    32    30    31   ar
    33    31    32   ar
    34    32    33   ar
    35    33    34   ar
    36    34    35   ar
    37    35    36   ar
    38    36    37   ar
    39    37    38   ar
    40     6     1   ar
    41    16    11   ar
    42    28    19    1
    43    38    29   ar
    44    36     4    1
    45    27    22   ar
    46    38    33   ar
    47     7    39    1
