@<TRIPOS>MOLECULE
*****
 39 43 0 0 0
SMALL
GASTEIGER

@<TRIPOS>ATOM
      1 C         143.9164  142.4722  158.4754 C.3     1  UNL1        0.0310
      2 C         143.8920  142.0955  159.9271 C.ar    1  UNL1       -0.0218
      3 C         144.8393  142.7509  160.8881 C.ar    1  UNL1       -0.0030
      4 C         144.8149  142.3741  162.3398 C.ar    1  UNL1        0.0144
      5 C         143.8433  141.3421  162.8306 C.ar    1  UNL1        0.0505
      6 C         142.8961  140.6868  161.8697 C.ar    1  UNL1        0.0144
      7 C         142.9205  141.0635  160.4180 C.ar    1  UNL1       -0.0026
      8 C         141.9732  140.4081  159.4571 C.ar    1  UNL1        0.0028
      9 C         140.6006  140.9770  159.2515 C.ar    1  UNL1        0.0015
     10 C         139.6534  140.3217  158.2906 C.ar    1  UNL1        0.0178
     11 C         140.0787  139.0975  157.5354 C.ar    1  UNL1        0.0847
     12 C         141.4513  138.5287  157.7410 C.ar    1  UNL1        0.1515
     13 C         142.3986  139.1840  158.7018 C.ar    1  UNL1        0.0382
     14 O         142.0716  137.3256  157.0945 O.3     1  UNL1       -0.4807
     15 C         141.4724  136.3942  156.0828 C.3     1  UNL1        0.1466
     16 C         140.9699  135.4060  155.0724 C.3     1  UNL1        0.0726
     17 C         141.8552  134.2847  154.6154 C.3     1  UNL1        0.1458
     18 O         143.2430  134.1516  155.1688 O.3     1  UNL1       -0.3535
     19 C         143.7456  135.1398  156.1792 C.3     1  UNL1        0.1458
     20 C         142.8603  136.2611  156.6361 C.3     1  UNL1        0.0726
     21 C         140.1050  136.4359  155.4676 C.3     1  UNL1        0.1254
     22 C         138.9990  137.4193  155.7123 C.2     1  UNL1        0.2297
     23 O         137.7380  137.1875  154.9338 O.2     1  UNL1       -0.2746
     24 N         138.9873  138.6038  156.6325 N.am    1  UNL1       -0.2814
     25 H         138.1530  139.1263  156.6457 H       1  UNL1        0.1549
     26 N         143.8189  140.9654  164.2823 N.am    1  UNL1       -0.2804
     27 C         142.8705  141.6524  165.2196 C.2     1  UNL1        0.2496
     28 O         141.9465  142.7161  164.7052 O.2     1  UNL1       -0.2698
     29 H         144.4254  140.2672  164.6199 H       1  UNL1        0.1552
     30 C         142.8461  141.2757  166.6713 C.ar    1  UNL1        0.0567
     31 C         142.5303  139.8661  167.0752 C.ar    1  UNL1        0.0252
     32 C         142.5059  139.4894  168.5269 C.ar    1  UNL1        0.0989
     33 N         142.7974  140.5223  169.5747 N.ar    1  UNL1       -0.2399
     34 C         143.1133  141.9319  169.1710 C.ar    1  UNL1        0.1528
     35 C         143.1377  142.3087  167.7193 C.ar    1  UNL1        0.0276
     36 C         143.4048  142.9649  170.2188 C.3     1  UNL1        0.4348
     37 F         143.6964  143.9979  171.2666 F       1  UNL1       -0.1644
     38 F         144.8500  142.5630  170.2128 F       1  UNL1       -0.1644
     39 F         141.9597  143.3667  170.2248 F       1  UNL1       -0.1644
@<TRIPOS>BOND
     1     1     2    1
     2     2     3   ar
     3     3     4   ar
     4     4     5   ar
     5     5    26    1
     6    26    27   am
     7    27    28    2
     8    27    30    1
     9    30    31   ar
    10    31    32   ar
    11    32    33   ar
    12    33    34   ar
    13    34    36    1
    14    36    37    1
    15    36    38    1
    16    36    39    1
    17    34    35   ar
    18     5     6   ar
    19     6     7   ar
    20     7     8    1
    21     8     9   ar
    22     9    10   ar
    23    10    11   ar
    24    11    12   ar
    25    12    13   ar
    26    12    14    1
    27    14    15    1
    28    15    16    1
    29    16    17    1
    30    17    18    1
    31    18    19    1
    32    19    20    1
    33    15    21    1
    34    21    22    1
    35    22    23    2
    36    22    24   am
    37     7     2   ar
    38    13     8   ar
    39    20    15    1
    40    35    30   ar
    41    24    11    1
    42    26    29    1
    43    24    25    1
@<TRIPOS>MOLECULE
*****
 39 43 0 0 0
SMALL
GASTEIGER

@<TRIPOS>ATOM
      1 C         139.2285  145.1625  162.7931 C.3     1  UNL1        0.0310
      2 C         139.9875  144.5934  161.6313 C.ar    1  UNL1       -0.0218
      3 C         140.5389  145.5060  160.5762 C.ar    1  UNL1       -0.0030
      4 C         141.2980  144.9368  159.4143 C.ar    1  UNL1        0.0144
      5 C         141.5057  143.4551  159.3076 C.ar    1  UNL1        0.0505
      6 C         140.9543  142.5426  160.3627 C.ar    1  UNL1        0.0144
      7 C         140.1953  143.1117  161.5245 C.ar    1  UNL1       -0.0026
      8 C         139.6439  142.1991  162.5797 C.ar    1  UNL1        0.0028
      9 C         138.5138  141.2691  162.2510 C.ar    1  UNL1        0.0015
     10 C         137.9625  140.3566  163.3061 C.ar    1  UNL1        0.0178
     11 C         138.5411  140.3739  164.6898 C.ar    1  UNL1        0.0847
     12 C         139.6712  141.3039  165.0184 C.ar    1  UNL1        0.1515
     13 C         140.2226  142.2165  163.9634 C.ar    1  UNL1        0.0382
     14 O         140.3883  141.4797  166.3242 O.3     1  UNL1       -0.4807
     15 C         140.1522  140.7688  167.6239 C.3     1  UNL1        0.1466
     16 C         139.9994  140.1192  168.9672 C.3     1  UNL1        0.0726
     17 C         140.8928  140.5240  170.1020 C.3     1  UNL1        0.1458
     18 O         141.9390  141.5785  169.8936 O.3     1  UNL1       -0.3535
     19 C         142.0918  142.2282  168.5503 C.3     1  UNL1        0.1458
     20 C         141.1984  141.8233  167.4154 C.3     1  UNL1        0.0726
     21 C         139.1409  139.7067  167.9387 C.3     1  UNL1        0.1254
     22 C         138.1158  139.0931  167.0317 C.2     1  UNL1        0.2297
     23 O         137.2421  138.0438  167.6526 O.2     1  UNL1       -0.2746
     24 N         137.8489  139.3901  165.5857 N.am    1  UNL1       -0.2814
     25 H         137.1235  138.8705  165.1698 H       1  UNL1        0.1549
     26 N         142.2647  142.8860  158.1458 N.am    1  UNL1       -0.2804
     27 C         143.7078  142.5086  158.3051 C.2     1  UNL1        0.2496
     28 O         144.3917  142.7004  159.6262 O.2     1  UNL1       -0.2698
     29 H         141.8159  142.7601  157.2787 H       1  UNL1        0.1552
     30 C         144.4669  141.9395  157.1433 C.ar    1  UNL1        0.0567
     31 C         143.7582  141.0966  156.1249 C.ar    1  UNL1        0.0252
     32 C         144.5172  140.5274  154.9630 C.ar    1  UNL1        0.0989
     33 N         145.9850  140.8012  154.8196 N.ar    1  UNL1       -0.2399
     34 C         146.6937  141.6441  155.8379 C.ar    1  UNL1        0.1528
     35 C         145.9347  142.2133  156.9998 C.ar    1  UNL1        0.0276
     36 C         148.1616  141.9179  155.6945 C.3     1  UNL1        0.4348
     37 F         149.6294  142.1917  155.5510 F       1  UNL1       -0.1644
     38 F         148.1299  141.3585  154.3030 F       1  UNL1       -0.1644
     39 F         148.1932  142.4773  157.0859 F       1  UNL1       -0.1644
@<TRIPOS>BOND
     1     1     2    1
     2     2     3   ar
     3     3     4   ar
     4     4     5   ar
     5     5    26    1
     6    26    27   am
     7    27    28    2
     8    27    30    1
     9    30    31   ar
    10    31    32   ar
    11    32    33   ar
    12    33    34   ar
    13    34    36    1
    14    36    37    1
    15    36    38    1
    16    36    39    1
    17    34    35   ar
    18     5     6   ar
    19     6     7   ar
    20     7     8    1
    21     8     9   ar
    22     9    10   ar
    23    10    11   ar
    24    11    12   ar
    25    12    13   ar
    26    12    14    1
    27    14    15    1
    28    15    16    1
    29    16    17    1
    30    17    18    1
    31    18    19    1
    32    19    20    1
    33    15    21    1
    34    21    22    1
    35    22    23    2
    36    22    24   am
    37     7     2   ar
    38    13     8   ar
    39    20    15    1
    40    35    30   ar
    41    24    11    1
    42    26    29    1
    43    24    25    1
@<TRIPOS>MOLECULE
*****
 39 43 0 0 0
SMALL
GASTEIGER

@<TRIPOS>ATOM
      1 C         144.1142  140.5458  158.3860 C.3     1  UNL1        0.0310
      2 C         143.1972  140.4333  159.5678 C.ar    1  UNL1       -0.0218
      3 C         143.4038  141.3147  160.7639 C.ar    1  UNL1       -0.0030
      4 C         142.4868  141.2021  161.9457 C.ar    1  UNL1        0.0144
      5 C         141.3634  140.2084  161.9313 C.ar    1  UNL1        0.0505
      6 C         141.1568  139.3272  160.7352 C.ar    1  UNL1        0.0144
      7 C         142.0737  139.4396  159.5535 C.ar    1  UNL1       -0.0026
      8 C         141.8671  138.5583  158.3573 C.ar    1  UNL1        0.0028
      9 C         140.9565  138.9986  157.2497 C.ar    1  UNL1        0.0015
     10 C         140.7499  138.1174  156.0536 C.ar    1  UNL1        0.0178
     11 C         141.4539  136.7959  155.9650 C.ar    1  UNL1        0.0847
     12 C         142.3646  136.3556  157.0726 C.ar    1  UNL1        0.1515
     13 C         142.5712  137.2369  158.2688 C.ar    1  UNL1        0.0382
     14 O         143.1570  135.0868  157.1834 O.3     1  UNL1       -0.4807
     15 C         143.2344  133.9448  156.2138 C.3     1  UNL1        0.1466
     16 C         143.3827  132.7529  155.3153 C.3     1  UNL1        0.0726
     17 C         144.2738  131.6158  155.7189 C.3     1  UNL1        0.1458
     18 O         145.0166  131.6706  157.0209 O.3     1  UNL1       -0.3535
     19 C         144.8683  132.8625  157.9194 C.3     1  UNL1        0.1458
     20 C         143.9772  133.9996  157.5158 C.3     1  UNL1        0.0726
     21 C         142.5386  133.7897  154.8941 C.3     1  UNL1        0.1254
     22 C         141.5934  134.7382  154.2179 C.2     1  UNL1        0.2297
     23 O         141.0605  134.2895  152.8896 O.2     1  UNL1       -0.2746
     24 N         141.1107  136.0761  154.6946 N.am    1  UNL1       -0.2814
     25 H         140.4860  136.5435  154.0942 H       1  UNL1        0.1549
     26 N         140.4465  140.0959  163.1130 N.am    1  UNL1       -0.2804
     27 C         140.8497  139.2712  164.2994 C.2     1  UNL1        0.2496
     28 O         142.1698  138.5591  164.3040 O.2     1  UNL1       -0.2698
     29 H         139.5800  140.5633  163.1100 H       1  UNL1        0.1552
     30 C         139.9327  139.1588  165.4812 C.ar    1  UNL1        0.0567
     31 C         138.7472  138.2415  165.4260 C.ar    1  UNL1        0.0252
     32 C         137.8303  138.1290  166.6078 C.ar    1  UNL1        0.0989
     33 N         138.0989  138.9338  167.8447 N.ar    1  UNL1       -0.2399
     34 C         139.2844  139.8511  167.9000 C.ar    1  UNL1        0.1528
     35 C         140.2014  139.9637  166.7182 C.ar    1  UNL1        0.0276
     36 C         139.5530  140.6560  169.1369 C.3     1  UNL1        0.4348
     37 F         139.8216  141.4608  170.3739 F       1  UNL1       -0.1644
     38 F         138.3391  140.0614  169.7874 F       1  UNL1       -0.1644
     39 F         140.7668  141.2506  168.4865 F       1  UNL1       -0.1644
@<TRIPOS>BOND
     1     1     2    1
     2     2     3   ar
     3     3     4   ar
     4     4     5   ar
     5     5    26    1
     6    26    27   am
     7    27    28    2
     8    27    30    1
     9    30    31   ar
    10    31    32   ar
    11    32    33   ar
    12    33    34   ar
    13    34    36    1
    14    36    37    1
    15    36    38    1
    16    36    39    1
    17    34    35   ar
    18     5     6   ar
    19     6     7   ar
    20     7     8    1
    21     8     9   ar
    22     9    10   ar
    23    10    11   ar
    24    11    12   ar
    25    12    13   ar
    26    12    14    1
    27    14    15    1
    28    15    16    1
    29    16    17    1
    30    17    18    1
    31    18    19    1
    32    19    20    1
    33    15    21    1
    34    21    22    1
    35    22    23    2
    36    22    24   am
    37     7     2   ar
    38    13     8   ar
    39    20    15    1
    40    35    30   ar
    41    24    11    1
    42    26    29    1
    43    24    25    1
@<TRIPOS>MOLECULE
*****
 39 43 0 0 0
SMALL
GASTEIGER

@<TRIPOS>ATOM
      1 C         144.1064  142.1050  158.9612 C.3     1  UNL1        0.0310
      2 C         143.9100  141.7917  160.4149 C.ar    1  UNL1       -0.0218
      3 C         144.8142  142.4044  161.4431 C.ar    1  UNL1       -0.0030
      4 C         144.6177  142.0910  162.8968 C.ar    1  UNL1        0.0144
      5 C         143.5170  141.1651  163.3223 C.ar    1  UNL1        0.0505
      6 C         142.6128  140.5525  162.2942 C.ar    1  UNL1        0.0144
      7 C         142.8093  140.8658  160.8405 C.ar    1  UNL1       -0.0026
      8 C         141.9050  140.2532  159.8123 C.ar    1  UNL1        0.0028
      9 C         140.5463  140.8383  159.5645 C.ar    1  UNL1        0.0015
     10 C         139.6421  140.2257  158.5364 C.ar    1  UNL1        0.0178
     11 C         140.0965  139.0280  157.7561 C.ar    1  UNL1        0.0847
     12 C         141.4552  138.4428  158.0040 C.ar    1  UNL1        0.1515
     13 C         142.3595  139.0554  159.0321 C.ar    1  UNL1        0.0382
     14 O         142.0994  137.2608  157.3423 O.3     1  UNL1       -0.4807
     15 C         141.5439  136.3719  156.2692 C.3     1  UNL1        0.1466
     16 C         141.0846  135.4256  155.1999 C.3     1  UNL1        0.0726
     17 C         141.9850  134.3165  154.7427 C.3     1  UNL1        0.1458
     18 O         143.3447  134.1537  155.3548 O.3     1  UNL1       -0.3535
     19 C         143.8040  135.1000  156.4242 C.3     1  UNL1        0.1458
     20 C         142.9036  136.2091  156.8813 C.3     1  UNL1        0.0726
     21 C         140.2071  136.4456  155.5929 C.3     1  UNL1        0.1254
     22 C         139.0955  137.4263  155.8226 C.2     1  UNL1        0.2297
     23 O         137.8713  137.2322  154.9779 O.2     1  UNL1       -0.2746
     24 N         139.0463  138.5756  156.7853 N.am    1  UNL1       -0.2814
     25 H         138.2148  139.1027  156.7792 H       1  UNL1        0.1549
     26 N         143.3206  140.8518  164.7760 N.am    1  UNL1       -0.2804
     27 C         142.1886  141.4813  165.5326 C.2     1  UNL1        0.2496
     28 O         141.2532  142.4242  164.8355 O.2     1  UNL1       -0.2698
     29 H         143.9346  140.2330  165.2335 H       1  UNL1        0.1552
     30 C         141.9922  141.1680  166.9863 C.ar    1  UNL1        0.0567
     31 C         142.6197  139.9422  167.5808 C.ar    1  UNL1        0.0252
     32 C         142.4232  139.6289  169.0345 C.ar    1  UNL1        0.0989
     33 N         141.5993  140.5414  169.8937 N.ar    1  UNL1       -0.2399
     34 C         140.9717  141.7673  169.2993 C.ar    1  UNL1        0.1528
     35 C         141.1681  142.0806  167.8456 C.ar    1  UNL1        0.0276
     36 C         140.1477  142.6799  170.1584 C.3     1  UNL1        0.4348
     37 F         139.3237  143.5926  171.0176 F       1  UNL1       -0.1644
     38 F         141.2384  143.7086  170.1117 F       1  UNL1       -0.1644
     39 F         139.0570  141.6512  170.2052 F       1  UNL1       -0.1644
@<TRIPOS>BOND
     1     1     2    1
     2     2     3   ar
     3     3     4   ar
     4     4     5   ar
     5     5    26    1
     6    26    27   am
     7    27    28    2
     8    27    30    1
     9    30    31   ar
    10    31    32   ar
    11    32    33   ar
    12    33    34   ar
    13    34    36    1
    14    36    37    1
    15    36    38    1
    16    36    39    1
    17    34    35   ar
    18     5     6   ar
    19     6     7   ar
    20     7     8    1
    21     8     9   ar
    22     9    10   ar
    23    10    11   ar
    24    11    12   ar
    25    12    13   ar
    26    12    14    1
    27    14    15    1
    28    15    16    1
    29    16    17    1
    30    17    18    1
    31    18    19    1
    32    19    20    1
    33    15    21    1
    34    21    22    1
    35    22    23    2
    36    22    24   am
    37     7     2   ar
    38    13     8   ar
    39    20    15    1
    40    35    30   ar
    41    24    11    1
    42    26    29    1
    43    24    25    1
@<TRIPOS>MOLECULE
*****
 39 43 0 0 0
SMALL
GASTEIGER

@<TRIPOS>ATOM
      1 C         141.8119  137.4950  163.0222 C.3     1  UNL1        0.0310
      2 C         141.2730  138.5253  162.0745 C.ar    1  UNL1       -0.0218
      3 C         141.7036  138.5208  160.6376 C.ar    1  UNL1       -0.0030
      4 C         141.1646  139.5511  159.6900 C.ar    1  UNL1        0.0144
      5 C         140.1950  140.5857  160.1792 C.ar    1  UNL1        0.0505
      6 C         139.7644  140.5902  161.6160 C.ar    1  UNL1        0.0144
      7 C         140.3034  139.5600  162.5636 C.ar    1  UNL1       -0.0026
      8 C         139.8727  139.5644  164.0006 C.ar    1  UNL1        0.0028
      9 C         138.6042  138.8738  164.4055 C.ar    1  UNL1        0.0015
     10 C         138.1736  138.8783  165.8423 C.ar    1  UNL1        0.0178
     11 C         139.0114  139.5733  166.8742 C.ar    1  UNL1        0.0847
     12 C         140.2799  140.2639  166.4693 C.ar    1  UNL1        0.1515
     13 C         140.7106  140.2595  165.0324 C.ar    1  UNL1        0.0382
     14 O         141.2547  141.0102  167.3312 O.3     1  UNL1       -0.4807
     15 C         141.2017  141.2503  168.8110 C.3     1  UNL1        0.1466
     16 C         141.2451  141.5467  170.2807 C.3     1  UNL1        0.0726
     17 C         142.3834  142.3384  170.8528 C.3     1  UNL1        0.1458
     18 O         143.4783  142.8337  169.9551 O.3     1  UNL1       -0.3535
     19 C         143.4349  142.5373  168.4854 C.3     1  UNL1        0.1458
     20 C         142.2966  141.7456  167.9133 C.3     1  UNL1        0.0726
     21 C         140.1608  140.8034  169.7942 C.3     1  UNL1        0.1254
     22 C         138.9158  140.0059  169.5406 C.2     1  UNL1        0.2297
     23 O         138.0707  139.7178  170.7458 O.2     1  UNL1       -0.2746
     24 N         138.4043  139.4585  168.2410 N.am    1  UNL1       -0.2814
     25 H         137.5583  138.9576  168.2919 H       1  UNL1        0.1549
     26 N         139.6560  141.6159  159.2315 N.am    1  UNL1       -0.2804
     27 C         138.7439  141.2032  158.1144 C.2     1  UNL1        0.2496
     28 O         138.3708  139.7603  157.9451 O.2     1  UNL1       -0.2698
     29 H         139.9009  142.5630  159.3426 H       1  UNL1        0.1552
     30 C         138.2050  142.2335  157.1667 C.ar    1  UNL1        0.0567
     31 C         136.8831  142.0139  156.4927 C.ar    1  UNL1        0.0252
     32 C         136.3441  143.0441  155.5450 C.ar    1  UNL1        0.0989
     33 N         137.1270  144.2939  155.2713 N.ar    1  UNL1       -0.2399
     34 C         138.4489  144.5136  155.9453 C.ar    1  UNL1        0.1528
     35 C         138.9879  143.4834  156.8930 C.ar    1  UNL1        0.0276
     36 C         139.2319  145.7634  155.6717 C.3     1  UNL1        0.4348
     37 F         140.0148  147.0133  155.3980 F       1  UNL1       -0.1644
     38 F         138.0006  146.4121  155.1117 F       1  UNL1       -0.1644
     39 F         140.4630  145.1148  156.2316 F       1  UNL1       -0.1644
@<TRIPOS>BOND
     1     1     2    1
     2     2     3   ar
     3     3     4   ar
     4     4     5   ar
     5     5    26    1
     6    26    27   am
     7    27    28    2
     8    27    30    1
     9    30    31   ar
    10    31    32   ar
    11    32    33   ar
    12    33    34   ar
    13    34    36    1
    14    36    37    1
    15    36    38    1
    16    36    39    1
    17    34    35   ar
    18     5     6   ar
    19     6     7   ar
    20     7     8    1
    21     8     9   ar
    22     9    10   ar
    23    10    11   ar
    24    11    12   ar
    25    12    13   ar
    26    12    14    1
    27    14    15    1
    28    15    16    1
    29    16    17    1
    30    17    18    1
    31    18    19    1
    32    19    20    1
    33    15    21    1
    34    21    22    1
    35    22    23    2
    36    22    24   am
    37     7     2   ar
    38    13     8   ar
    39    20    15    1
    40    35    30   ar
    41    24    11    1
    42    26    29    1
    43    24    25    1
@<TRIPOS>MOLECULE
*****
 39 43 0 0 0
SMALL
GASTEIGER

@<TRIPOS>ATOM
      1 C         141.6645  143.4706  159.8888 C.3     1  UNL1        0.0310
      2 C         141.6402  142.0386  159.4427 C.ar    1  UNL1       -0.0218
      3 C         141.2897  141.7009  158.0238 C.ar    1  UNL1       -0.0030
      4 C         141.2653  140.2689  157.5779 C.ar    1  UNL1        0.0144
      5 C         141.5915  139.1748  158.5507 C.ar    1  UNL1        0.0505
      6 C         141.9420  139.5125  159.9695 C.ar    1  UNL1        0.0144
      7 C         141.9663  140.9444  160.4155 C.ar    1  UNL1       -0.0026
      8 C         142.3168  141.2822  161.8344 C.ar    1  UNL1        0.0028
      9 C         143.5423  142.0946  162.1312 C.ar    1  UNL1        0.0015
     10 C         143.8928  142.4324  163.5499 C.ar    1  UNL1        0.0178
     11 C         143.0179  141.9577  164.6720 C.ar    1  UNL1        0.0847
     12 C         141.7924  141.1452  164.3753 C.ar    1  UNL1        0.1515
     13 C         141.4419  140.8074  162.9564 C.ar    1  UNL1        0.0382
     14 O         140.7916  140.5768  165.3372 O.3     1  UNL1       -0.4807
     15 C         140.7691  140.6805  166.8335 C.3     1  UNL1        0.1466
     16 C         140.6523  140.7234  168.3283 C.3     1  UNL1        0.0726
     17 C         139.5054  140.0388  169.0109 C.3     1  UNL1        0.1458
     18 O         138.4753  139.3114  168.1987 O.3     1  UNL1       -0.3535
     19 C         138.5920  139.2685  166.7039 C.3     1  UNL1        0.1458
     20 C         139.7389  139.9530  166.0213 C.3     1  UNL1        0.0726
     21 C         141.7418  141.3782  167.7373 C.3     1  UNL1        0.1254
     22 C         142.9773  142.1445  167.3682 C.2     1  UNL1        0.2297
     23 O         143.7467  142.7304  168.5148 O.2     1  UNL1       -0.2746
     24 N         143.5452  142.4024  166.0039 N.am    1  UNL1       -0.2814
     25 H         144.3736  142.9338  165.9796 H       1  UNL1        0.1549
     26 N         141.5671  137.7428  158.1047 N.am    1  UNL1       -0.2804
     27 C         142.6351  137.2246  157.1876 C.2     1  UNL1        0.2496
     28 O         143.7274  138.1384  156.7166 O.2     1  UNL1       -0.2698
     29 H         140.8502  137.1431  158.4138 H       1  UNL1        0.1552
     30 C         142.6107  135.7927  156.7416 C.ar    1  UNL1        0.0567
     31 C         141.6292  135.3489  155.6978 C.ar    1  UNL1        0.0252
     32 C         141.6049  133.9169  155.2517 C.ar    1  UNL1        0.0989
     33 N         142.5620  132.9288  155.8495 N.ar    1  UNL1       -0.2399
     34 C         143.5435  133.3726  156.8933 C.ar    1  UNL1        0.1528
     35 C         143.5680  134.8045  157.3394 C.ar    1  UNL1        0.0276
     36 C         144.5008  132.3845  157.4912 C.3     1  UNL1        0.4348
     37 F         145.4580  131.3963  158.0890 F       1  UNL1       -0.1644
     38 F         144.2408  131.4436  156.3522 F       1  UNL1       -0.1644
     39 F         144.7607  133.3253  158.6301 F       1  UNL1       -0.1644
@<TRIPOS>BOND
     1     1     2    1
     2     2     3   ar
     3     3     4   ar
     4     4     5   ar
     5     5    26    1
     6    26    27   am
     7    27    28    2
     8    27    30    1
     9    30    31   ar
    10    31    32   ar
    11    32    33   ar
    12    33    34   ar
    13    34    36    1
    14    36    37    1
    15    36    38    1
    16    36    39    1
    17    34    35   ar
    18     5     6   ar
    19     6     7   ar
    20     7     8    1
    21     8     9   ar
    22     9    10   ar
    23    10    11   ar
    24    11    12   ar
    25    12    13   ar
    26    12    14    1
    27    14    15    1
    28    15    16    1
    29    16    17    1
    30    17    18    1
    31    18    19    1
    32    19    20    1
    33    15    21    1
    34    21    22    1
    35    22    23    2
    36    22    24   am
    37     7     2   ar
    38    13     8   ar
    39    20    15    1
    40    35    30   ar
    41    24    11    1
    42    26    29    1
    43    24    25    1
@<TRIPOS>MOLECULE
*****
 39 43 0 0 0
SMALL
GASTEIGER

@<TRIPOS>ATOM
      1 C         144.3100  140.8825  163.3838 C.3     1  UNL1        0.0310
      2 C         143.8044  141.4461  162.0889 C.ar    1  UNL1       -0.0218
      3 C         144.7615  142.0751  161.1201 C.ar    1  UNL1       -0.0030
      4 C         144.2557  142.6387  159.8252 C.ar    1  UNL1        0.0144
      5 C         142.7931  142.5733  159.4992 C.ar    1  UNL1        0.0505
      6 C         141.8361  141.9444  160.4680 C.ar    1  UNL1        0.0144
      7 C         142.3418  141.3808  161.7629 C.ar    1  UNL1       -0.0026
      8 C         141.3847  140.7519  162.7317 C.ar    1  UNL1        0.0028
      9 C         140.3655  139.7646  162.2452 C.ar    1  UNL1        0.0015
     10 C         139.4085  139.1357  163.2140 C.ar    1  UNL1        0.0178
     11 C         139.4706  139.4940  164.6692 C.ar    1  UNL1        0.0847
     12 C         140.4897  140.4813  165.1556 C.ar    1  UNL1        0.1515
     13 C         141.4468  141.1102  164.1869 C.ar    1  UNL1        0.0382
     14 O         140.7212  140.9747  166.5532 O.3     1  UNL1       -0.4807
     15 C         139.9907  140.6027  167.8094 C.3     1  UNL1        0.1466
     16 C         139.3279  140.3011  169.1207 C.3     1  UNL1        0.0726
     17 C         139.8025  140.9755  170.3736 C.3     1  UNL1        0.1458
     18 O         140.9400  141.9516  170.3151 O.3     1  UNL1       -0.3535
     19 C         141.6028  142.2533  169.0038 C.3     1  UNL1        0.1458
     20 C         141.1282  141.5788  167.7509 C.3     1  UNL1        0.0726
     21 C         138.8483  139.6454  167.9783 C.3     1  UNL1        0.1254
     22 C         138.1542  138.8237  166.9327 C.2     1  UNL1        0.2297
     23 O         137.0353  137.9545  167.4250 O.2     1  UNL1       -0.2746
     24 N         138.4312  138.7563  165.4600 N.am    1  UNL1       -0.2814
     25 H         137.8546  138.1474  164.9443 H       1  UNL1        0.1549
     26 N         142.2875  143.1369  158.2044 N.am    1  UNL1       -0.2804
     27 C         141.8203  144.5608  158.1377 C.2     1  UNL1        0.2496
     28 O         141.8588  145.4210  159.3659 O.2     1  UNL1       -0.2698
     29 H         142.2622  142.5723  157.3983 H       1  UNL1        0.1552
     30 C         141.3147  145.1244  156.8429 C.ar    1  UNL1        0.0567
     31 C         141.6810  144.4676  155.5451 C.ar    1  UNL1        0.0252
     32 C         141.1753  145.0312  154.2502 C.ar    1  UNL1        0.0989
     33 N         140.3034  146.2516  154.2532 N.ar    1  UNL1       -0.2399
     34 C         139.9370  146.9085  155.5509 C.ar    1  UNL1        0.1528
     35 C         140.4426  146.3450  156.8458 C.ar    1  UNL1        0.0276
     36 C         139.0650  148.1291  155.5539 C.3     1  UNL1        0.4348
     37 F         138.1931  149.3496  155.5567 F       1  UNL1       -0.1644
     38 F         139.3565  148.3408  154.0977 F       1  UNL1       -0.1644
     39 F         138.7736  147.9174  157.0099 F       1  UNL1       -0.1644
@<TRIPOS>BOND
     1     1     2    1
     2     2     3   ar
     3     3     4   ar
     4     4     5   ar
     5     5    26    1
     6    26    27   am
     7    27    28    2
     8    27    30    1
     9    30    31   ar
    10    31    32   ar
    11    32    33   ar
    12    33    34   ar
    13    34    36    1
    14    36    37    1
    15    36    38    1
    16    36    39    1
    17    34    35   ar
    18     5     6   ar
    19     6     7   ar
    20     7     8    1
    21     8     9   ar
    22     9    10   ar
    23    10    11   ar
    24    11    12   ar
    25    12    13   ar
    26    12    14    1
    27    14    15    1
    28    15    16    1
    29    16    17    1
    30    17    18    1
    31    18    19    1
    32    19    20    1
    33    15    21    1
    34    21    22    1
    35    22    23    2
    36    22    24   am
    37     7     2   ar
    38    13     8   ar
    39    20    15    1
    40    35    30   ar
    41    24    11    1
    42    26    29    1
    43    24    25    1
@<TRIPOS>MOLECULE
*****
 39 43 0 0 0
SMALL
GASTEIGER

@<TRIPOS>ATOM
      1 C         142.3089  143.0537  156.2421 C.3     1  UNL1        0.0310
      2 C         142.1622  141.5610  156.2598 C.ar    1  UNL1       -0.0218
      3 C         141.8161  140.8264  154.9985 C.ar    1  UNL1       -0.0030
      4 C         141.6695  139.3337  155.0162 C.ar    1  UNL1        0.0144
      5 C         141.8690  138.5756  156.2951 C.ar    1  UNL1        0.0505
      6 C         142.2150  139.3102  157.5562 C.ar    1  UNL1        0.0144
      7 C         142.3617  140.8029  157.5386 C.ar    1  UNL1       -0.0026
      8 C         142.7078  141.5375  158.7999 C.ar    1  UNL1        0.0028
      9 C         144.1439  141.7955  159.1475 C.ar    1  UNL1        0.0015
     10 C         144.4900  142.5300  160.4087 C.ar    1  UNL1        0.0178
     11 C         143.4000  143.0066  161.3222 C.ar    1  UNL1        0.0847
     12 C         141.9638  142.7486  160.9746 C.ar    1  UNL1        0.1515
     13 C         141.6177  142.0140  159.7134 C.ar    1  UNL1        0.0382
     14 O         140.7325  143.1344  161.7395 O.3     1  UNL1       -0.4807
     15 C         140.6333  143.8736  163.0410 C.3     1  UNL1        0.1466
     16 C         140.4226  144.6034  164.3344 C.3     1  UNL1        0.0726
     17 C         139.0320  144.8377  164.8454 C.3     1  UNL1        0.1458
     18 O         137.8520  144.3421  164.0631 O.3     1  UNL1       -0.3535
     19 C         138.0627  143.6122  162.7697 C.3     1  UNL1        0.1458
     20 C         139.4533  143.3779  162.2587 C.3     1  UNL1        0.0726
     21 C         141.7409  144.4094  163.8990 C.3     1  UNL1        0.1254
     22 C         143.2212  144.3385  163.6675 C.2     1  UNL1        0.2297
     23 O         144.0762  144.9761  164.7220 O.2     1  UNL1       -0.2746
     24 N         143.9596  143.7141  162.5206 N.am    1  UNL1       -0.2814
     25 H         144.9413  143.7771  162.5597 H       1  UNL1        0.1549
     26 N         141.7223  137.0829  156.3127 N.am    1  UNL1       -0.2804
     27 C         142.9294  136.2086  156.1434 C.2     1  UNL1        0.2496
     28 O         144.2831  136.8271  155.9565 O.2     1  UNL1       -0.2698
     29 H         140.8338  136.6770  156.4354 H       1  UNL1        0.1552
     30 C         142.7828  134.7159  156.1611 C.ar    1  UNL1        0.0567
     31 C         141.6620  134.0635  155.4073 C.ar    1  UNL1        0.0252
     32 C         141.5154  132.5708  155.4250 C.ar    1  UNL1        0.0989
     33 N         142.4895  131.7305  156.1964 N.ar    1  UNL1       -0.2399
     34 C         143.6102  132.3829  156.9501 C.ar    1  UNL1        0.1528
     35 C         143.7570  133.8757  156.9325 C.ar    1  UNL1        0.0276
     36 C         144.5844  131.5427  157.7215 C.3     1  UNL1        0.4348
     37 F         145.5587  130.7027  158.4930 F       1  UNL1       -0.1644
     38 F         145.4460  132.7497  157.9478 F       1  UNL1       -0.1644
     39 F         143.7229  130.3359  157.4952 F       1  UNL1       -0.1644
@<TRIPOS>BOND
     1     1     2    1
     2     2     3   ar
     3     3     4   ar
     4     4     5   ar
     5     5    26    1
     6    26    27   am
     7    27    28    2
     8    27    30    1
     9    30    31   ar
    10    31    32   ar
    11    32    33   ar
    12    33    34   ar
    13    34    36    1
    14    36    37    1
    15    36    38    1
    16    36    39    1
    17    34    35   ar
    18     5     6   ar
    19     6     7   ar
    20     7     8    1
    21     8     9   ar
    22     9    10   ar
    23    10    11   ar
    24    11    12   ar
    25    12    13   ar
    26    12    14    1
    27    14    15    1
    28    15    16    1
    29    16    17    1
    30    17    18    1
    31    18    19    1
    32    19    20    1
    33    15    21    1
    34    21    22    1
    35    22    23    2
    36    22    24   am
    37     7     2   ar
    38    13     8   ar
    39    20    15    1
    40    35    30   ar
    41    24    11    1
    42    26    29    1
    43    24    25    1
@<TRIPOS>MOLECULE
*****
 39 43 0 0 0
SMALL
GASTEIGER

@<TRIPOS>ATOM
      1 C         143.5647  139.9839  159.6008 C.3     1  UNL1        0.0310
      2 C         143.3345  140.2672  161.0557 C.ar    1  UNL1       -0.0218
      3 C         144.4902  140.2662  162.0120 C.ar    1  UNL1       -0.0030
      4 C         144.2600  140.5496  163.4669 C.ar    1  UNL1        0.0144
      5 C         142.8742  140.8340  163.9655 C.ar    1  UNL1        0.0505
      6 C         141.7186  140.8350  163.0092 C.ar    1  UNL1        0.0144
      7 C         141.9488  140.5516  161.5543 C.ar    1  UNL1       -0.0026
      8 C         140.7931  140.5526  160.5980 C.ar    1  UNL1        0.0028
      9 C         139.8351  139.3985  160.5780 C.ar    1  UNL1        0.0015
     10 C         138.6795  139.3995  159.6217 C.ar    1  UNL1        0.0178
     11 C         138.4818  140.5546  158.6855 C.ar    1  UNL1        0.0847
     12 C         139.4397  141.7087  158.7055 C.ar    1  UNL1        0.1515
     13 C         140.5954  141.7077  159.6617 C.ar    1  UNL1        0.0382
     14 O         139.4261  142.9502  157.8636 O.3     1  UNL1       -0.4807
     15 C         138.4511  143.3441  156.7939 C.3     1  UNL1        0.1466
     16 C         137.5357  143.8321  155.7104 C.3     1  UNL1        0.0726
     17 C         137.7975  145.1505  155.0448 C.3     1  UNL1        0.1458
     18 O         138.9747  145.9810  155.4626 O.3     1  UNL1       -0.3535
     19 C         139.8901  145.4930  156.5460 C.3     1  UNL1        0.1458
     20 C         139.6283  144.1746  157.2117 C.3     1  UNL1        0.0726
     21 C         137.2491  142.5939  156.3018 C.3     1  UNL1        0.1254
     22 C         136.7250  141.2644  156.7578 C.2     1  UNL1        0.2297
     23 O         135.4889  140.7783  156.0610 O.2     1  UNL1       -0.2746
     24 N         137.2736  140.3569  157.8187 N.am    1  UNL1       -0.2814
     25 H         136.7748  139.5209  157.9655 H       1  UNL1        0.1549
     26 N         142.6440  141.1173  165.4203 N.am    1  UNL1       -0.2804
     27 C         142.3913  139.9872  166.3738 C.2     1  UNL1        0.2496
     28 O         142.3689  138.5737  165.8723 O.2     1  UNL1       -0.2698
     29 H         142.6587  142.0451  165.7495 H       1  UNL1        0.1552
     30 C         142.1611  140.2706  167.8287 C.ar    1  UNL1        0.0567
     31 C         142.6484  139.3042  168.8672 C.ar    1  UNL1        0.0252
     32 C         142.4182  139.5876  170.3221 C.ar    1  UNL1        0.0989
     33 N         141.7007  140.8373  170.7384 N.ar    1  UNL1       -0.2399
     34 C         141.2135  141.8037  169.6999 C.ar    1  UNL1        0.1528
     35 C         141.4436  141.5204  168.2450 C.ar    1  UNL1        0.0276
     36 C         140.4960  143.0535  170.1162 C.3     1  UNL1        0.4348
     37 F         139.7784  144.3032  170.5324 F       1  UNL1       -0.1644
     38 F         139.2269  142.2705  170.2795 F       1  UNL1       -0.1644
     39 F         141.7649  143.8364  169.9529 F       1  UNL1       -0.1644
@<TRIPOS>BOND
     1     1     2    1
     2     2     3   ar
     3     3     4   ar
     4     4     5   ar
     5     5    26    1
     6    26    27   am
     7    27    28    2
     8    27    30    1
     9    30    31   ar
    10    31    32   ar
    11    32    33   ar
    12    33    34   ar
    13    34    36    1
    14    36    37    1
    15    36    38    1
    16    36    39    1
    17    34    35   ar
    18     5     6   ar
    19     6     7   ar
    20     7     8    1
    21     8     9   ar
    22     9    10   ar
    23    10    11   ar
    24    11    12   ar
    25    12    13   ar
    26    12    14    1
    27    14    15    1
    28    15    16    1
    29    16    17    1
    30    17    18    1
    31    18    19    1
    32    19    20    1
    33    15    21    1
    34    21    22    1
    35    22    23    2
    36    22    24   am
    37     7     2   ar
    38    13     8   ar
    39    20    15    1
    40    35    30   ar
    41    24    11    1
    42    26    29    1
    43    24    25    1
