@<TRIPOS>MOLECULE
*****
 29 31 0 0 0
SMALL
GASTEIGER

@<TRIPOS>ATOM
      1 C         139.8742  139.9773  167.1397 C.ar    1  UNL1        0.1666
      2 N         138.9579  139.5774  168.2578 N.ar    1  UNL1       -0.2348
      3 C         139.0150  140.3021  169.5700 C.ar    1  UNL1        0.1182
      4 C         139.9885  141.4267  169.7638 C.ar    1  UNL1        0.1048
      5 C         140.2713  142.3185  170.9363 C.ar    1  UNL1        0.1197
      6 N         141.3624  143.2696  170.5427 N.ar    1  UNL1       -0.2220
      7 C         141.7540  142.9655  169.1270 C.ar    1  UNL1        0.1838
      8 N         140.9049  141.8265  168.6456 N.ar    1  UNL1       -0.2731
      9 C         140.8477  141.1019  167.3335 C.ar    1  UNL1        0.1407
     10 N         138.5640  139.2904  165.0039 N.am    1  UNL1       -0.1883
     11 C         139.8171  139.2526  165.8275 C.2     1  UNL1        0.2884
     12 O         141.0129  138.4902  165.3392 O.2     1  UNL1       -0.2663
     13 H         137.7792  139.7908  165.3245 H       1  UNL1        0.1829
     14 O         138.5069  138.5658  163.6918 O.3     1  UNL1       -0.2635
     15 C         137.9841  139.2641  162.4714 C.3     1  UNL1        0.2000
     16 C         138.7574  141.6429  161.7689 C.3     1  UNL1        0.0345
     17 C         137.7868  140.7511  162.4851 C.3     1  UNL1        0.1426
     18 O         136.6193  141.3462  163.2147 O.3     1  UNL1       -0.3818
     19 H         136.6398  142.3117  163.1247 H       1  UNL1        0.2104
     20 N         141.7641  141.5017  166.2153 N.pl3   1  UNL1       -0.2959
     21 H         142.6561  141.0921  166.1395 H       1  UNL1        0.1537
     22 C         141.3213  142.5257  165.2125 C.ar    1  UNL1        0.0772
     23 C         140.1133  143.3713  165.4877 C.ar    1  UNL1        0.0174
     24 C         139.6704  144.3953  164.4848 C.ar    1  UNL1        0.0072
     25 C         140.4356  144.5735  163.2071 C.ar    1  UNL1        0.0324
     26 I         139.9929  145.5974  162.2043 I       1  UNL1       -0.0424
     27 C         141.6436  143.7279  162.9320 C.ar    1  UNL1        0.0367
     28 C         142.0864  142.7040  163.9348 C.ar    1  UNL1        0.1539
     29 F         143.2944  141.8583  163.6597 F       1  UNL1       -0.2028
@<TRIPOS>BOND
     1    17    16    1
     2    17    18    1
     3    17    15    1
     4    15    14    1
     5    14    10    1
     6    10    11   am
     7    11    12    2
     8    11     1    1
     9     1     2   ar
    10     2     3   ar
    11     3     4   ar
    12     4     5   ar
    13     5     6   ar
    14     6     7   ar
    15     7     8   ar
    16     8     9   ar
    17     9    20    1
    18    20    22    1
    19    22    23   ar
    20    23    24   ar
    21    24    25   ar
    22    25    26    1
    23    25    27   ar
    24    27    28   ar
    25    28    29    1
    26     9     1   ar
    27    28    22   ar
    28     8     4   ar
    29    18    19    1
    30    10    13    1
    31    20    21    1
@<TRIPOS>MOLECULE
*****
 29 31 0 0 0
SMALL
GASTEIGER

@<TRIPOS>ATOM
      1 C         139.6128  139.6968  167.6333 C.ar    1  UNL1        0.1666
      2 N         138.2656  139.0574  167.4721 N.ar    1  UNL1       -0.2348
      3 C         137.9606  138.2496  166.2455 C.ar    1  UNL1        0.1182
      4 C         139.0030  138.0814  165.1800 C.ar    1  UNL1        0.1048
      5 C         138.9915  137.3479  163.8717 C.ar    1  UNL1        0.1197
      6 N         140.3318  137.5340  163.2243 N.ar    1  UNL1       -0.2220
      7 C         141.1715  138.3826  164.1325 C.ar    1  UNL1        0.1838
      8 N         140.3502  138.7209  165.3412 N.ar    1  UNL1       -0.2731
      9 C         140.6551  139.5286  166.5679 C.ar    1  UNL1        0.1407
     10 N         140.0678  139.8238  170.1881 N.am    1  UNL1       -0.1883
     11 C         139.9177  140.5046  168.8599 C.2     1  UNL1        0.2884
     12 O         140.0726  141.9931  168.7584 O.2     1  UNL1       -0.2663
     13 H         139.9662  138.8468  170.2547 H       1  UNL1        0.1829
     14 O         140.3728  140.6314  171.4147 O.3     1  UNL1       -0.2635
     15 C         141.6239  141.4566  171.4775 C.3     1  UNL1        0.2000
     16 C         143.5432  141.9174  169.7880 C.3     1  UNL1        0.0345
     17 C         142.8595  141.0011  170.7592 C.3     1  UNL1        0.1426
     18 O         143.4114  139.6295  171.0120 O.3     1  UNL1       -0.3818
     19 H         144.2059  139.4960  170.4718 H       1  UNL1        0.2104
     20 N         142.0024  140.1681  166.7291 N.pl3   1  UNL1       -0.2959
     21 H         142.6032  139.8748  167.4518 H       1  UNL1        0.1537
     22 C         142.4343  141.2544  165.7891 C.ar    1  UNL1        0.0772
     23 C         141.6303  142.5161  165.6811 C.ar    1  UNL1        0.0174
     24 C         142.0622  143.6024  164.7411 C.ar    1  UNL1        0.0072
     25 C         143.2980  143.4269  163.9092 C.ar    1  UNL1        0.0324
     26 I         143.7299  144.5132  162.9693 I       1  UNL1       -0.0424
     27 C         144.1019  142.1652  164.0173 C.ar    1  UNL1        0.0367
     28 C         143.6700  141.0789  164.9572 C.ar    1  UNL1        0.1539
     29 F         144.4740  139.8171  165.0653 F       1  UNL1       -0.2028
@<TRIPOS>BOND
     1    17    16    1
     2    17    18    1
     3    17    15    1
     4    15    14    1
     5    14    10    1
     6    10    11   am
     7    11    12    2
     8    11     1    1
     9     1     2   ar
    10     2     3   ar
    11     3     4   ar
    12     4     5   ar
    13     5     6   ar
    14     6     7   ar
    15     7     8   ar
    16     8     9   ar
    17     9    20    1
    18    20    22    1
    19    22    23   ar
    20    23    24   ar
    21    24    25   ar
    22    25    26    1
    23    25    27   ar
    24    27    28   ar
    25    28    29    1
    26     9     1   ar
    27    28    22   ar
    28     8     4   ar
    29    18    19    1
    30    10    13    1
    31    20    21    1
@<TRIPOS>MOLECULE
*****
 29 31 0 0 0
SMALL
GASTEIGER

@<TRIPOS>ATOM
      1 C         142.1668  139.2320  166.8788 C.ar    1  UNL1        0.1666
      2 N         143.1205  139.1344  168.0323 N.ar    1  UNL1       -0.2348
      3 C         142.6453  139.4254  169.4251 C.ar    1  UNL1        0.1182
      4 C         141.2164  139.8140  169.6641 C.ar    1  UNL1        0.1048
      5 C         140.4656  140.1569  170.9165 C.ar    1  UNL1        0.1197
      6 N         139.0478  140.4665  170.5369 N.ar    1  UNL1       -0.2220
      7 C         138.9224  140.3148  169.0499 C.ar    1  UNL1        0.1838
      8 N         140.2627  139.9115  168.5104 N.ar    1  UNL1       -0.2731
      9 C         140.7379  139.6205  167.1178 C.ar    1  UNL1        0.1407
     10 N         143.9837  139.4355  165.0328 N.am    1  UNL1       -0.1883
     11 C         142.6420  138.9410  165.4860 C.2     1  UNL1        0.2884
     12 O         141.7756  138.1557  164.5467 O.2     1  UNL1       -0.2663
     13 H         144.5523  139.9509  165.6493 H       1  UNL1        0.1829
     14 O         144.4589  139.1445  163.6401 O.3     1  UNL1       -0.2635
     15 C         144.4610  140.2312  162.6060 C.3     1  UNL1        0.2000
     16 C         144.0273  142.7494  163.0756 C.3     1  UNL1        0.0345
     17 C         144.9783  141.5957  162.9531 C.3     1  UNL1        0.1426
     18 O         146.4462  141.8066  163.1777 O.3     1  UNL1       -0.3818
     19 H         146.6100  142.7385  163.3914 H       1  UNL1        0.2104
     20 N         139.7842  139.7181  165.9641 N.pl3   1  UNL1       -0.2959
     21 H         139.2438  138.9371  165.7048 H       1  UNL1        0.1537
     22 C         139.6538  141.0057  165.2056 C.ar    1  UNL1        0.0772
     23 C         140.3743  142.2324  165.6810 C.ar    1  UNL1        0.0174
     24 C         140.2440  143.5199  164.9224 C.ar    1  UNL1        0.0072
     25 C         139.3932  143.5806  163.6885 C.ar    1  UNL1        0.0324
     26 I         139.2629  144.8681  162.9300 I       1  UNL1       -0.0424
     27 C         138.6728  142.3538  163.2132 C.ar    1  UNL1        0.0367
     28 C         138.8031  141.0664  163.9717 C.ar    1  UNL1        0.1539
     29 F         138.0826  139.8396  163.4963 F       1  UNL1       -0.2028
@<TRIPOS>BOND
     1    17    16    1
     2    17    18    1
     3    17    15    1
     4    15    14    1
     5    14    10    1
     6    10    11   am
     7    11    12    2
     8    11     1    1
     9     1     2   ar
    10     2     3   ar
    11     3     4   ar
    12     4     5   ar
    13     5     6   ar
    14     6     7   ar
    15     7     8   ar
    16     8     9   ar
    17     9    20    1
    18    20    22    1
    19    22    23   ar
    20    23    24   ar
    21    24    25   ar
    22    25    26    1
    23    25    27   ar
    24    27    28   ar
    25    28    29    1
    26     9     1   ar
    27    28    22   ar
    28     8     4   ar
    29    18    19    1
    30    10    13    1
    31    20    21    1
@<TRIPOS>MOLECULE
*****
 29 31 0 0 0
SMALL
GASTEIGER

@<TRIPOS>ATOM
      1 C         142.2823  139.6280  163.3162 C.ar    1  UNL1        0.1666
      2 N         143.3771  139.1572  162.4054 N.ar    1  UNL1       -0.2348
      3 C         144.2739  140.1540  161.7328 C.ar    1  UNL1        0.1182
      4 C         144.0758  141.6216  161.9712 C.ar    1  UNL1        0.1048
      5 C         144.7978  142.8292  161.4513 C.ar    1  UNL1        0.1197
      6 N         144.1492  144.0465  162.0409 N.ar    1  UNL1       -0.2220
      7 C         143.0264  143.5911  162.9252 C.ar    1  UNL1        0.1838
      8 N         142.9810  142.0924  162.8821 N.ar    1  UNL1       -0.2731
      9 C         142.0843  141.0957  163.5546 C.ar    1  UNL1        0.1407
     10 N         139.9473  138.5192  163.5775 N.am    1  UNL1       -0.1883
     11 C         141.3855  138.6313  163.9888 C.2     1  UNL1        0.2884
     12 O         141.9268  137.7468  165.0725 O.2     1  UNL1       -0.2663
     13 H         139.5921  139.0998  162.8662 H       1  UNL1        0.1829
     14 O         139.0505  137.5225  164.2500 O.3     1  UNL1       -0.2635
     15 C         138.4247  137.8497  165.5735 C.3     1  UNL1        0.2000
     16 C         138.9364  139.5381  167.4807 C.3     1  UNL1        0.0345
     17 C         138.4530  139.2583  166.0885 C.3     1  UNL1        0.1426
     18 O         137.9980  140.3868  165.2115 O.3     1  UNL1       -0.3818
     19 H         138.0800  141.2244  165.6939 H       1  UNL1        0.2104
     20 N         140.9894  141.5665  164.4655 N.pl3   1  UNL1       -0.2959
     21 H         140.0798  141.7005  164.1135 H       1  UNL1        0.1537
     22 C         141.2806  141.8333  165.9126 C.ar    1  UNL1        0.0772
     23 C         142.4544  141.1750  166.5751 C.ar    1  UNL1        0.0174
     24 C         142.7455  141.4418  168.0223 C.ar    1  UNL1        0.0072
     25 C         141.8629  142.3667  168.8068 C.ar    1  UNL1        0.0324
     26 I         142.1540  142.6335  170.2539 I       1  UNL1       -0.0424
     27 C         140.6891  143.0249  168.1442 C.ar    1  UNL1        0.0367
     28 C         140.3980  142.7581  166.6971 C.ar    1  UNL1        0.1539
     29 F         139.2241  143.4163  166.0346 F       1  UNL1       -0.2028
@<TRIPOS>BOND
     1    17    16    1
     2    17    18    1
     3    17    15    1
     4    15    14    1
     5    14    10    1
     6    10    11   am
     7    11    12    2
     8    11     1    1
     9     1     2   ar
    10     2     3   ar
    11     3     4   ar
    12     4     5   ar
    13     5     6   ar
    14     6     7   ar
    15     7     8   ar
    16     8     9   ar
    17     9    20    1
    18    20    22    1
    19    22    23   ar
    20    23    24   ar
    21    24    25   ar
    22    25    26    1
    23    25    27   ar
    24    27    28   ar
    25    28    29    1
    26     9     1   ar
    27    28    22   ar
    28     8     4   ar
    29    18    19    1
    30    10    13    1
    31    20    21    1
@<TRIPOS>MOLECULE
*****
 29 31 0 0 0
SMALL
GASTEIGER

@<TRIPOS>ATOM
      1 C         141.7709  139.7893  166.2089 C.ar    1  UNL1        0.1666
      2 N         142.2903  138.4319  165.8379 N.ar    1  UNL1       -0.2348
      3 C         141.5709  137.6085  164.8109 C.ar    1  UNL1        0.1182
      4 C         140.3322  138.1426  164.1550 C.ar    1  UNL1        0.1048
      5 C         139.4176  137.5643  163.1163 C.ar    1  UNL1        0.1197
      6 N         138.3329  138.5644  162.8453 N.ar    1  UNL1       -0.2220
      7 C         138.5772  139.7607  163.7166 C.ar    1  UNL1        0.1838
      8 N         139.8128  139.5001  164.5260 N.ar    1  UNL1       -0.2731
      9 C         140.5322  140.3234  165.5530 C.ar    1  UNL1        0.1407
     10 N         142.6044  140.1185  168.6476 N.am    1  UNL1       -0.1883
     11 C         142.4903  140.6127  167.2359 C.2     1  UNL1        0.2884
     12 O         143.0954  141.9301  166.8513 O.2     1  UNL1       -0.2663
     13 H         142.2072  139.2537  168.9000 H       1  UNL1        0.1829
     14 O         143.3237  140.9418  169.6746 O.3     1  UNL1       -0.2635
     15 C         142.7684  142.2709  170.0935 C.3     1  UNL1        0.2000
     16 C         140.3573  142.9036  169.3613 C.3     1  UNL1        0.0345
     17 C         141.3086  142.4076  170.4098 C.3     1  UNL1        0.1426
     18 O         140.7999  142.0484  171.7744 O.3     1  UNL1       -0.3818
     19 H         139.8416  142.1937  171.8108 H       1  UNL1        0.2104
     20 N         140.0128  141.6808  165.9240 N.pl3   1  UNL1       -0.2959
     21 H         139.7079  141.8568  166.8434 H       1  UNL1        0.1537
     22 C         139.9581  142.7702  164.8942 C.ar    1  UNL1        0.0772
     23 C         141.2284  143.3779  164.3772 C.ar    1  UNL1        0.0174
     24 C         141.1737  144.4672  163.3474 C.ar    1  UNL1        0.0072
     25 C         139.8488  144.9488  162.8347 C.ar    1  UNL1        0.0324
     26 I         139.7941  146.0380  161.8049 I       1  UNL1       -0.0424
     27 C         138.5787  144.3410  163.3517 C.ar    1  UNL1        0.0367
     28 C         138.6334  143.2517  164.3814 C.ar    1  UNL1        0.1539
     29 F         137.3631  142.6439  164.8984 F       1  UNL1       -0.2028
@<TRIPOS>BOND
     1    17    16    1
     2    17    18    1
     3    17    15    1
     4    15    14    1
     5    14    10    1
     6    10    11   am
     7    11    12    2
     8    11     1    1
     9     1     2   ar
    10     2     3   ar
    11     3     4   ar
    12     4     5   ar
    13     5     6   ar
    14     6     7   ar
    15     7     8   ar
    16     8     9   ar
    17     9    20    1
    18    20    22    1
    19    22    23   ar
    20    23    24   ar
    21    24    25   ar
    22    25    26    1
    23    25    27   ar
    24    27    28   ar
    25    28    29    1
    26     9     1   ar
    27    28    22   ar
    28     8     4   ar
    29    18    19    1
    30    10    13    1
    31    20    21    1
@<TRIPOS>MOLECULE
*****
 29 31 0 0 0
SMALL
GASTEIGER

@<TRIPOS>ATOM
      1 C         141.4142  141.3798  162.9124 C.ar    1  UNL1        0.1666
      2 N         142.6675  141.4966  162.0967 N.ar    1  UNL1       -0.2348
      3 C         143.9161  140.7900  162.5347 C.ar    1  UNL1        0.1182
      4 C         143.9113  139.9668  163.7886 C.ar    1  UNL1        0.1048
      5 C         144.9816  139.1629  164.4655 C.ar    1  UNL1        0.1197
      6 N         144.3897  138.5494  165.6997 N.ar    1  UNL1       -0.2220
      7 C         142.9537  138.9741  165.7855 C.ar    1  UNL1        0.1838
      8 N         142.6580  139.8501  164.6044 N.ar    1  UNL1       -0.2731
      9 C         141.4094  140.5566  164.1663 C.ar    1  UNL1        0.1407
     10 N         140.1305  143.5851  162.4234 N.am    1  UNL1       -0.1883
     11 C         140.1656  142.0864  162.4744 C.2     1  UNL1        0.2884
     12 O         138.9521  141.2942  162.0873 O.2     1  UNL1       -0.2663
     13 H         140.9270  144.1050  162.6775 H       1  UNL1        0.1829
     14 O         138.8820  144.2916  161.9854 O.3     1  UNL1       -0.2635
     15 C         137.7021  144.3712  162.9084 C.3     1  UNL1        0.2000
     16 C         138.2379  144.8230  165.4101 C.3     1  UNL1        0.0345
     17 C         137.8204  143.8800  164.3207 C.3     1  UNL1        0.1426
     18 O         137.5214  142.4462  164.6437 O.3     1  UNL1       -0.3818
     19 H         137.6455  142.2961  165.5940 H       1  UNL1        0.2104
     20 N         140.1561  140.4399  164.9821 N.pl3   1  UNL1       -0.2959
     21 H         139.3433  140.0532  164.5832 H       1  UNL1        0.1537
     22 C         140.1411  140.9124  166.4058 C.ar    1  UNL1        0.0772
     23 C         139.6658  139.9969  167.4948 C.ar    1  UNL1        0.0174
     24 C         139.6508  140.4694  168.9184 C.ar    1  UNL1        0.0072
     25 C         140.1111  141.8573  169.2529 C.ar    1  UNL1        0.0324
     26 I         140.0961  142.3298  170.6764 I       1  UNL1       -0.0424
     27 C         140.5864  142.7727  168.1638 C.ar    1  UNL1        0.0367
     28 C         140.6014  142.3002  166.7402 C.ar    1  UNL1        0.1539
     29 F         141.0767  143.2157  165.6512 F       1  UNL1       -0.2028
@<TRIPOS>BOND
     1    17    16    1
     2    17    18    1
     3    17    15    1
     4    15    14    1
     5    14    10    1
     6    10    11   am
     7    11    12    2
     8    11     1    1
     9     1     2   ar
    10     2     3   ar
    11     3     4   ar
    12     4     5   ar
    13     5     6   ar
    14     6     7   ar
    15     7     8   ar
    16     8     9   ar
    17     9    20    1
    18    20    22    1
    19    22    23   ar
    20    23    24   ar
    21    24    25   ar
    22    25    26    1
    23    25    27   ar
    24    27    28   ar
    25    28    29    1
    26     9     1   ar
    27    28    22   ar
    28     8     4   ar
    29    18    19    1
    30    10    13    1
    31    20    21    1
@<TRIPOS>MOLECULE
*****
 29 31 0 0 0
SMALL
GASTEIGER

@<TRIPOS>ATOM
      1 C         139.8496  139.3417  166.8736 C.ar    1  UNL1        0.1666
      2 N         138.7199  139.4562  167.8537 N.ar    1  UNL1       -0.2348
      3 C         138.9659  140.0288  169.2182 C.ar    1  UNL1        0.1182
      4 C         140.3416  140.4868  169.6024 C.ar    1  UNL1        0.1048
      5 C         140.8829  141.0881  170.8655 C.ar    1  UNL1        0.1197
      6 N         142.3471  141.3452  170.6660 N.ar    1  UNL1       -0.2220
      7 C         142.7108  140.9028  169.2796 C.ar    1  UNL1        0.1838
      8 N         141.4712  140.3723  168.6223 N.ar    1  UNL1       -0.2731
      9 C         141.2253  139.7997  167.2579 C.ar    1  UNL1        0.1407
     10 N         138.6265  139.4307  164.5832 N.am    1  UNL1       -0.1883
     11 C         139.6036  138.7691  165.5091 C.2     1  UNL1        0.2884
     12 O         140.3348  137.5350  165.0707 O.2     1  UNL1       -0.2663
     13 H         138.1465  140.2406  164.8710 H       1  UNL1        0.1829
     14 O         138.3805  138.8581  163.2188 O.3     1  UNL1       -0.2635
     15 C         138.0827  139.7698  162.0653 C.3     1  UNL1        0.2000
     16 C         138.2148  142.3145  161.5581 C.3     1  UNL1        0.0345
     17 C         137.6118  141.1712  162.3193 C.3     1  UNL1        0.1426
     18 O         136.5381  141.4293  163.3344 O.3     1  UNL1       -0.3818
     19 H         136.3532  142.3807  163.3746 H       1  UNL1        0.2104
     20 N         142.3550  139.6852  166.2777 N.pl3   1  UNL1       -0.2959
     21 H         142.8571  138.8418  166.2017 H       1  UNL1        0.1537
     22 C         142.7196  140.8557  165.4134 C.ar    1  UNL1        0.0772
     23 C         143.3842  142.0566  166.0186 C.ar    1  UNL1        0.0174
     24 C         143.7488  143.2271  165.1542 C.ar    1  UNL1        0.0072
     25 C         143.4488  143.1967  163.6848 C.ar    1  UNL1        0.0324
     26 I         143.8134  144.3672  162.8205 I       1  UNL1       -0.0424
     27 C         142.7842  141.9958  163.0798 C.ar    1  UNL1        0.0367
     28 C         142.4196  140.8253  163.9441 C.ar    1  UNL1        0.1539
     29 F         141.7550  139.6244  163.3389 F       1  UNL1       -0.2028
@<TRIPOS>BOND
     1    17    16    1
     2    17    18    1
     3    17    15    1
     4    15    14    1
     5    14    10    1
     6    10    11   am
     7    11    12    2
     8    11     1    1
     9     1     2   ar
    10     2     3   ar
    11     3     4   ar
    12     4     5   ar
    13     5     6   ar
    14     6     7   ar
    15     7     8   ar
    16     8     9   ar
    17     9    20    1
    18    20    22    1
    19    22    23   ar
    20    23    24   ar
    21    24    25   ar
    22    25    26    1
    23    25    27   ar
    24    27    28   ar
    25    28    29    1
    26     9     1   ar
    27    28    22   ar
    28     8     4   ar
    29    18    19    1
    30    10    13    1
    31    20    21    1
@<TRIPOS>MOLECULE
*****
 29 31 0 0 0
SMALL
GASTEIGER

@<TRIPOS>ATOM
      1 C         139.2245  140.3430  167.2843 C.ar    1  UNL1        0.1666
      2 N         138.8939  139.4990  168.4793 N.ar    1  UNL1       -0.2348
      3 C         139.3524  139.9192  169.8444 C.ar    1  UNL1        0.1182
      4 C         140.1415  141.1835  170.0143 C.ar    1  UNL1        0.1048
      5 C         140.7244  141.8476  171.2264 C.ar    1  UNL1        0.1197
      6 N         141.4151  143.1021  170.7804 N.ar    1  UNL1       -0.2220
      7 C         141.2592  143.2134  169.2926 C.ar    1  UNL1        0.1838
      8 N         140.4720  142.0276  168.8191 N.ar    1  UNL1       -0.2731
      9 C         140.0135  141.6073  167.4542 C.ar    1  UNL1        0.1407
     10 N         139.0340  138.5289  165.4342 N.am    1  UNL1       -0.1883
     11 C         138.7660  139.9228  165.9193 C.2     1  UNL1        0.2884
     12 O         138.0395  140.8964  165.0394 O.2     1  UNL1       -0.2663
     13 H         139.5109  137.8899  166.0117 H       1  UNL1        0.1829
     14 O         138.5756  138.1087  164.0692 O.3     1  UNL1       -0.2635
     15 C         139.3846  138.4753  162.8604 C.3     1  UNL1        0.2000
     16 C         141.8631  139.1196  162.4223 C.3     1  UNL1        0.0345
     17 C         140.8324  138.0909  162.7822 C.3     1  UNL1        0.1426
     18 O         141.2495  136.6779  163.0638 O.3     1  UNL1       -0.3818
     19 H         142.2118  136.6001  162.9703 H       1  UNL1        0.2104
     20 N         140.3441  142.4514  166.2591 N.pl3   1  UNL1       -0.2959
     21 H         139.7050  143.1310  165.9444 H       1  UNL1        0.1537
     22 C         141.6484  142.2600  165.5433 C.ar    1  UNL1        0.0772
     23 C         142.4689  141.0299  165.7957 C.ar    1  UNL1        0.0174
     24 C         143.7732  140.8386  165.0800 C.ar    1  UNL1        0.0072
     25 C         144.2569  141.8773  164.1119 C.ar    1  UNL1        0.0324
     26 I         145.5612  141.6860  163.3962 I       1  UNL1       -0.0424
     27 C         143.4364  143.1073  163.8596 C.ar    1  UNL1        0.0367
     28 C         142.1321  143.2987  164.5753 C.ar    1  UNL1        0.1539
     29 F         141.3116  144.5288  164.3229 F       1  UNL1       -0.2028
@<TRIPOS>BOND
     1    17    16    1
     2    17    18    1
     3    17    15    1
     4    15    14    1
     5    14    10    1
     6    10    11   am
     7    11    12    2
     8    11     1    1
     9     1     2   ar
    10     2     3   ar
    11     3     4   ar
    12     4     5   ar
    13     5     6   ar
    14     6     7   ar
    15     7     8   ar
    16     8     9   ar
    17     9    20    1
    18    20    22    1
    19    22    23   ar
    20    23    24   ar
    21    24    25   ar
    22    25    26    1
    23    25    27   ar
    24    27    28   ar
    25    28    29    1
    26     9     1   ar
    27    28    22   ar
    28     8     4   ar
    29    18    19    1
    30    10    13    1
    31    20    21    1
@<TRIPOS>MOLECULE
*****
 29 31 0 0 0
SMALL
GASTEIGER

@<TRIPOS>ATOM
      1 C         139.3609  139.5137  165.7181 C.ar    1  UNL1        0.1666
      2 N         139.2544  138.0427  165.4449 N.ar    1  UNL1       -0.2348
      3 C         138.7229  137.5611  164.1274 C.ar    1  UNL1        0.1182
      4 C         138.2979  138.5506  163.0833 C.ar    1  UNL1        0.1048
      5 C         137.7398  138.3748  161.7021 C.ar    1  UNL1        0.1197
      6 N         137.5014  139.7373  161.1218 N.ar    1  UNL1       -0.2220
      7 C         137.9121  140.7551  162.1442 C.ar    1  UNL1        0.1838
      8 N         138.4044  140.0216  163.3565 N.ar    1  UNL1       -0.2731
      9 C         138.9359  140.5032  164.6740 C.ar    1  UNL1        0.1407
     10 N         139.2170  139.5871  168.3112 N.am    1  UNL1       -0.1883
     11 C         139.8924  139.9953  167.0356 C.2     1  UNL1        0.2884
     12 O         141.0992  140.8851  167.0774 O.2     1  UNL1       -0.2663
     13 H         138.4249  139.0030  168.2837 H       1  UNL1        0.1829
     14 O         139.7485  140.0687  169.6286 O.3     1  UNL1       -0.2635
     15 C         141.0605  139.5533  170.1417 C.3     1  UNL1        0.2000
     16 C         143.0597  141.1644  169.7448 C.3     1  UNL1        0.0345
     17 C         142.0840  140.5100  170.6776 C.3     1  UNL1        0.1426
     18 O         142.1320  140.8123  172.1459 O.3     1  UNL1       -0.3818
     19 H         142.8460  141.4445  172.3227 H       1  UNL1        0.2104
     20 N         139.0424  141.9742  164.9472 N.pl3   1  UNL1       -0.2959
     21 H         138.3220  142.4383  165.4319 H       1  UNL1        0.1537
     22 C         140.2467  142.7383  164.4821 C.ar    1  UNL1        0.0772
     23 C         141.4435  142.0034  163.9553 C.ar    1  UNL1        0.0174
     24 C         142.6477  142.7674  163.4901 C.ar    1  UNL1        0.0072
     25 C         142.6550  144.2661  163.5518 C.ar    1  UNL1        0.0324
     26 I         143.8591  145.0301  163.0867 I       1  UNL1       -0.0424
     27 C         141.4580  145.0009  164.0786 C.ar    1  UNL1        0.0367
     28 C         140.2539  144.2369  164.5437 C.ar    1  UNL1        0.1539
     29 F         139.0570  144.9717  165.0706 F       1  UNL1       -0.2028
@<TRIPOS>BOND
     1    17    16    1
     2    17    18    1
     3    17    15    1
     4    15    14    1
     5    14    10    1
     6    10    11   am
     7    11    12    2
     8    11     1    1
     9     1     2   ar
    10     2     3   ar
    11     3     4   ar
    12     4     5   ar
    13     5     6   ar
    14     6     7   ar
    15     7     8   ar
    16     8     9   ar
    17     9    20    1
    18    20    22    1
    19    22    23   ar
    20    23    24   ar
    21    24    25   ar
    22    25    26    1
    23    25    27   ar
    24    27    28   ar
    25    28    29    1
    26     9     1   ar
    27    28    22   ar
    28     8     4   ar
    29    18    19    1
    30    10    13    1
    31    20    21    1
