@<TRIPOS>MOLECULE
*****
 19 20 0 0 0
SMALL
GASTEIGER

@<TRIPOS>ATOM
      1 C         140.7321  142.8954  166.2026 C.2     1  UNL1        0.0192
      2 C         141.2804  141.5595  166.6082 C.2     1  UNL1        0.0046
      3 C         141.4873  141.2430  168.0598 C.ar    1  UNL1        0.0381
      4 C         142.6841  141.7862  168.7827 C.ar    1  UNL1        0.1409
      5 F         143.6741  142.6458  168.0541 F       1  UNL1       -0.2041
      6 C         142.8909  141.4697  170.2343 C.ar    1  UNL1        0.0297
      7 C         141.9009  140.6100  170.9629 C.ar    1  UNL1        0.0032
      8 C         140.7041  140.0668  170.2400 C.ar    1  UNL1        0.0115
      9 C         140.4973  140.3833  168.7884 C.ar    1  UNL1        0.0598
     10 CL        139.3005  139.8402  168.0655 Cl      1  UNL1       -0.0822
     11 C         140.1116  143.8449  161.8479 C.ar    1  UNL1        0.0674
     12 C         139.5410  144.7478  162.9011 C.ar    1  UNL1        0.0176
     13 C         139.7478  144.4313  164.3527 C.ar    1  UNL1        0.0204
     14 C         140.5252  143.2119  164.7511 C.ar    1  UNL1        0.0814
     15 N         141.0958  142.3091  163.6979 N.ar    1  UNL1       -0.2425
     16 C         140.8890  142.6256  162.2463 C.ar    1  UNL1        0.1133
     17 C         139.2647  143.1503  159.4920 C.3     1  UNL1        0.1123
     18 N         139.9048  144.1614  160.3963 N.pl3   1  UNL1       -0.3029
     19 C         140.3380  145.4891  159.8491 C.3     1  UNL1        0.1123
@<TRIPOS>BOND
     1    17    18    1
     2    18    19    1
     3    18    11    1
     4    11    12   ar
     5    12    13   ar
     6    13    14   ar
     7    14     1    1
     8     1     2    2
     9     2     3    1
    10     3     4   ar
    11     4     5    1
    12     4     6   ar
    13     6     7   ar
    14     7     8   ar
    15     8     9   ar
    16     9    10    1
    17    14    15   ar
    18    15    16   ar
    19    16    11   ar
    20     9     3   ar
@<TRIPOS>MOLECULE
*****
 19 20 0 0 0
SMALL
GASTEIGER

@<TRIPOS>ATOM
      1 C         140.3420  142.3488  165.9383 C.2     1  UNL1        0.0192
      2 C         141.4833  142.2527  166.9068 C.2     1  UNL1        0.0046
      3 C         141.2435  141.7553  168.3015 C.ar    1  UNL1        0.0381
      4 C         140.5456  142.6304  169.3002 C.ar    1  UNL1        0.1409
      5 F         140.0875  144.0027  168.9041 F       1  UNL1       -0.2041
      6 C         140.3057  142.1331  170.6949 C.ar    1  UNL1        0.0297
      7 C         140.7639  140.7607  171.0909 C.ar    1  UNL1        0.0032
      8 C         141.4617  139.8857  170.0923 C.ar    1  UNL1        0.0115
      9 C         141.7015  140.3830  168.6976 C.ar    1  UNL1        0.0598
     10 CL        142.3994  139.5081  167.6990 Cl      1  UNL1       -0.0822
     11 C         141.0615  143.8408  161.7542 C.ar    1  UNL1        0.0674
     12 C         141.0953  144.7985  162.9081 C.ar    1  UNL1        0.0176
     13 C         140.8555  144.3012  164.3028 C.ar    1  UNL1        0.0204
     14 C         140.5818  142.8461  164.5436 C.ar    1  UNL1        0.0814
     15 N         140.5480  141.8885  163.3896 N.ar    1  UNL1       -0.2425
     16 C         140.7878  142.3858  161.9949 C.ar    1  UNL1        0.1133
     17 C         140.4814  145.4703  159.8156 C.3     1  UNL1        0.1123
     18 N         141.3013  144.3381  160.3595 N.pl3   1  UNL1       -0.3029
     19 C         142.3610  143.7032  159.5087 C.3     1  UNL1        0.1123
@<TRIPOS>BOND
     1    17    18    1
     2    18    19    1
     3    18    11    1
     4    11    12   ar
     5    12    13   ar
     6    13    14   ar
     7    14     1    1
     8     1     2    2
     9     2     3    1
    10     3     4   ar
    11     4     5    1
    12     4     6   ar
    13     6     7   ar
    14     7     8   ar
    15     8     9   ar
    16     9    10    1
    17    14    15   ar
    18    15    16   ar
    19    16    11   ar
    20     9     3   ar
@<TRIPOS>MOLECULE
*****
 19 20 0 0 0
SMALL
GASTEIGER

@<TRIPOS>ATOM
      1 C         140.3478  142.8821  166.4327 C.2     1  UNL1        0.0192
      2 C         140.8502  141.5385  166.8713 C.2     1  UNL1        0.0046
      3 C         140.9674  141.2221  168.3329 C.ar    1  UNL1        0.0381
      4 C         139.8872  140.4402  169.0199 C.ar    1  UNL1        0.1409
      5 F         138.6900  139.9747  168.2453 F       1  UNL1       -0.2041
      6 C         140.0044  140.1237  170.4814 C.ar    1  UNL1        0.0297
      7 C         141.2016  140.5893  171.2560 C.ar    1  UNL1        0.0032
      8 C         142.2817  141.3712  170.5690 C.ar    1  UNL1        0.0115
      9 C         142.1646  141.6876  169.1074 C.ar    1  UNL1        0.0598
     10 CL        143.2446  142.4695  168.4204 Cl      1  UNL1       -0.0822
     11 C         139.9964  143.8313  162.0481 C.ar    1  UNL1        0.0674
     12 C         139.3563  144.7305  163.0637 C.ar    1  UNL1        0.0176
     13 C         139.4735  144.4141  164.5253 C.ar    1  UNL1        0.0204
     14 C         140.2306  143.1985  164.9712 C.ar    1  UNL1        0.0814
     15 N         140.8707  142.2993  163.9555 N.ar    1  UNL1       -0.2425
     16 C         140.7536  142.6157  162.4939 C.ar    1  UNL1        0.1133
     17 C         139.2914  143.1385  159.6454 C.3     1  UNL1        0.1123
     18 N         139.8793  144.1477  160.5865 N.pl3   1  UNL1       -0.3029
     19 C         140.3499  145.4734  160.0661 C.3     1  UNL1        0.1123
@<TRIPOS>BOND
     1    17    18    1
     2    18    19    1
     3    18    11    1
     4    11    12   ar
     5    12    13   ar
     6    13    14   ar
     7    14     1    1
     8     1     2    2
     9     2     3    1
    10     3     4   ar
    11     4     5    1
    12     4     6   ar
    13     6     7   ar
    14     7     8   ar
    15     8     9   ar
    16     9    10    1
    17    14    15   ar
    18    15    16   ar
    19    16    11   ar
    20     9     3   ar
@<TRIPOS>MOLECULE
*****
 19 20 0 0 0
SMALL
GASTEIGER

@<TRIPOS>ATOM
      1 C         140.1728  142.3304  166.1615 C.2     1  UNL1        0.0192
      2 C         140.6489  141.2192  167.0494 C.2     1  UNL1        0.0046
      3 C         141.1485  141.5243  168.4304 C.ar    1  UNL1        0.0381
      4 C         142.4561  142.2358  168.6148 C.ar    1  UNL1        0.1409
      5 F         143.2641  142.6421  167.4181 F       1  UNL1       -0.2041
      6 C         142.9558  142.5409  169.9958 C.ar    1  UNL1        0.0297
      7 C         142.1477  142.1345  171.1925 C.ar    1  UNL1        0.0032
      8 C         140.8401  141.4230  171.0081 C.ar    1  UNL1        0.0115
      9 C         140.3405  141.1179  169.6271 C.ar    1  UNL1        0.0598
     10 CL        139.0330  140.4065  169.4427 Cl      1  UNL1       -0.0822
     11 C         138.6740  141.4151  162.0183 C.ar    1  UNL1        0.0674
     12 C         137.7184  141.4346  163.1743 C.ar    1  UNL1        0.0176
     13 C         138.2180  141.7397  164.5554 C.ar    1  UNL1        0.0204
     14 C         139.6732  142.0253  164.7805 C.ar    1  UNL1        0.0814
     15 N         140.6288  142.0058  163.6245 N.ar    1  UNL1       -0.2425
     16 C         140.1292  141.7007  162.2434 C.ar    1  UNL1        0.1133
     17 C         138.4524  142.0619  159.5118 C.3     1  UNL1        0.1123
     18 N         138.1744  141.1100  160.6373 N.pl3   1  UNL1       -0.3029
     19 C         137.3968  139.8531  160.3817 C.3     1  UNL1        0.1123
@<TRIPOS>BOND
     1    17    18    1
     2    18    19    1
     3    18    11    1
     4    11    12   ar
     5    12    13   ar
     6    13    14   ar
     7    14     1    1
     8     1     2    2
     9     2     3    1
    10     3     4   ar
    11     4     5    1
    12     4     6   ar
    13     6     7   ar
    14     7     8   ar
    15     8     9   ar
    16     9    10    1
    17    14    15   ar
    18    15    16   ar
    19    16    11   ar
    20     9     3   ar
@<TRIPOS>MOLECULE
*****
 19 20 0 0 0
SMALL
GASTEIGER

@<TRIPOS>ATOM
      1 C         142.6983  142.4520  166.1232 C.2     1  UNL1        0.0192
      2 C         141.5186  141.9879  166.9249 C.2     1  UNL1        0.0046
      3 C         141.7018  141.5633  168.3519 C.ar    1  UNL1        0.0381
      4 C         142.4794  140.3208  168.6708 C.ar    1  UNL1        0.1409
      5 F         143.0737  139.5029  167.5627 F       1  UNL1       -0.2041
      6 C         142.6626  139.8963  170.0977 C.ar    1  UNL1        0.0297
      7 C         142.0682  140.7142  171.2058 C.ar    1  UNL1        0.0032
      8 C         141.2906  141.9567  170.8868 C.ar    1  UNL1        0.0115
      9 C         141.1075  142.3812  169.4599 C.ar    1  UNL1        0.0598
     10 CL        140.3300  143.6236  169.1410 Cl      1  UNL1       -0.0822
     11 C         142.1488  143.7257  161.8423 C.ar    1  UNL1        0.0674
     12 C         142.9897  144.5529  162.7689 C.ar    1  UNL1        0.0176
     13 C         143.1729  144.1284  164.1958 C.ar    1  UNL1        0.0204
     14 C         142.5152  142.8766  164.6962 C.ar    1  UNL1        0.0814
     15 N         141.6743  142.0494  163.7697 N.ar    1  UNL1       -0.2425
     16 C         141.4911  142.4739  162.3427 C.ar    1  UNL1        0.1133
     17 C         142.7469  143.4768  159.3263 C.3     1  UNL1        0.1123
     18 N         141.9656  144.1502  160.4154 N.pl3   1  UNL1       -0.3029
     19 C         141.0012  145.2483  160.0774 C.3     1  UNL1        0.1123
@<TRIPOS>BOND
     1    17    18    1
     2    18    19    1
     3    18    11    1
     4    11    12   ar
     5    12    13   ar
     6    13    14   ar
     7    14     1    1
     8     1     2    2
     9     2     3    1
    10     3     4   ar
    11     4     5    1
    12     4     6   ar
    13     6     7   ar
    14     7     8   ar
    15     8     9   ar
    16     9    10    1
    17    14    15   ar
    18    15    16   ar
    19    16    11   ar
    20     9     3   ar
@<TRIPOS>MOLECULE
*****
 19 20 0 0 0
SMALL
GASTEIGER

@<TRIPOS>ATOM
      1 C         140.5322  139.5908  166.0810 C.2     1  UNL1        0.0192
      2 C         140.3770  140.8703  166.8483 C.2     1  UNL1        0.0046
      3 C         140.7925  140.9366  168.2880 C.ar    1  UNL1        0.0381
      4 C         139.8907  140.3899  169.3548 C.ar    1  UNL1        0.1409
      5 F         138.5735  139.7769  168.9818 F       1  UNL1       -0.2041
      6 C         140.3062  140.4562  170.7946 C.ar    1  UNL1        0.0297
      7 C         141.6235  141.0693  171.1676 C.ar    1  UNL1        0.0032
      8 C         142.5252  141.6159  170.1008 C.ar    1  UNL1        0.0115
      9 C         142.1097  141.5496  168.6611 C.ar    1  UNL1        0.0598
     10 CL        143.0114  142.0963  167.5943 Cl      1  UNL1       -0.0822
     11 C         139.2857  139.3918  161.7617 C.ar    1  UNL1        0.0674
     12 C         138.6032  138.5273  162.7799 C.ar    1  UNL1        0.0176
     13 C         139.0187  138.5936  164.2196 C.ar    1  UNL1        0.0204
     14 C         140.1167  139.5245  164.6413 C.ar    1  UNL1        0.0814
     15 N         140.7992  140.3891  163.6231 N.ar    1  UNL1       -0.2425
     16 C         140.3837  140.3227  162.1833 C.ar    1  UNL1        0.1133
     17 C         139.6904  138.5427  159.3399 C.3     1  UNL1        0.1123
     18 N         138.8702  139.3255  160.3219 N.pl3   1  UNL1       -0.3029
     19 C         137.6344  140.0420  159.8642 C.3     1  UNL1        0.1123
@<TRIPOS>BOND
     1    17    18    1
     2    18    19    1
     3    18    11    1
     4    11    12   ar
     5    12    13   ar
     6    13    14   ar
     7    14     1    1
     8     1     2    2
     9     2     3    1
    10     3     4   ar
    11     4     5    1
    12     4     6   ar
    13     6     7   ar
    14     7     8   ar
    15     8     9   ar
    16     9    10    1
    17    14    15   ar
    18    15    16   ar
    19    16    11   ar
    20     9     3   ar
@<TRIPOS>MOLECULE
*****
 19 20 0 0 0
SMALL
GASTEIGER

@<TRIPOS>ATOM
      1 C         142.7977  140.0434  166.3262 C.2     1  UNL1        0.0192
      2 C         141.7782  141.0336  166.8059 C.2     1  UNL1        0.0046
      3 C         141.6633  141.3426  168.2692 C.ar    1  UNL1        0.0381
      4 C         142.7069  142.1842  168.9422 C.ar    1  UNL1        0.1409
      5 F         143.8653  142.7166  168.1518 F       1  UNL1       -0.2041
      6 C         142.5921  142.4932  170.4055 C.ar    1  UNL1        0.0297
      7 C         141.4337  141.9607  171.1958 C.ar    1  UNL1        0.0032
      8 C         140.3902  141.1192  170.5229 C.ar    1  UNL1        0.0115
      9 C         140.5050  140.8102  169.0595 C.ar    1  UNL1        0.0598
     10 CL        139.4615  139.9687  168.3866 Cl      1  UNL1       -0.0822
     11 C         143.1422  139.1163  161.9362 C.ar    1  UNL1        0.0674
     12 C         142.3243  138.2299  162.8281 C.ar    1  UNL1        0.0176
     13 C         142.2095  138.5390  164.2914 C.ar    1  UNL1        0.0204
     14 C         142.9125  139.7344  164.8629 C.ar    1  UNL1        0.0814
     15 N         143.7304  140.6208  163.9711 N.ar    1  UNL1       -0.2425
     16 C         143.8452  140.3117  162.5077 C.ar    1  UNL1        0.1133
     17 C         142.9649  137.4234  159.9735 C.3     1  UNL1        0.1123
     18 N         143.2570  138.8073  160.4729 N.pl3   1  UNL1       -0.3029
     19 C         143.6640  139.8821  159.5091 C.3     1  UNL1        0.1123
@<TRIPOS>BOND
     1    17    18    1
     2    18    19    1
     3    18    11    1
     4    11    12   ar
     5    12    13   ar
     6    13    14   ar
     7    14     1    1
     8     1     2    2
     9     2     3    1
    10     3     4   ar
    11     4     5    1
    12     4     6   ar
    13     6     7   ar
    14     7     8   ar
    15     8     9   ar
    16     9    10    1
    17    14    15   ar
    18    15    16   ar
    19    16    11   ar
    20     9     3   ar
@<TRIPOS>MOLECULE
*****
 19 20 0 0 0
SMALL
GASTEIGER

@<TRIPOS>ATOM
      1 C         141.7373  138.3807  164.2468 C.2     1  UNL1        0.0192
      2 C         141.2638  139.6652  164.8597 C.2     1  UNL1        0.0046
      3 C         141.0039  139.7413  166.3350 C.ar    1  UNL1        0.0381
      4 C         142.1459  139.6512  167.3034 C.ar    1  UNL1        0.1409
      5 F         143.5478  139.4850  166.7965 F       1  UNL1       -0.2041
      6 C         141.8860  139.7272  168.7788 C.ar    1  UNL1        0.0297
      7 C         140.4840  139.8934  169.2857 C.ar    1  UNL1        0.0032
      8 C         139.3421  139.9835  168.3174 C.ar    1  UNL1        0.0115
      9 C         139.6020  139.9074  166.8420 C.ar    1  UNL1        0.0598
     10 CL        138.4601  139.9975  165.8736 Cl      1  UNL1       -0.0822
     11 C         142.5171  138.1526  159.8207 C.ar    1  UNL1        0.0674
     12 C         141.1211  138.3655  160.3263 C.ar    1  UNL1        0.0176
     13 C         140.8611  138.4415  161.8017 C.ar    1  UNL1        0.0204
     14 C         141.9972  138.3046  162.7714 C.ar    1  UNL1        0.0814
     15 N         143.3933  138.0917  162.2658 N.ar    1  UNL1       -0.2425
     16 C         143.6532  138.0157  160.7905 C.ar    1  UNL1        0.1133
     17 C         142.7164  136.7540  157.6403 C.3     1  UNL1        0.1123
     18 N         142.7770  138.0765  158.3454 N.pl3   1  UNL1       -0.3029
     19 C         143.0976  139.3230  157.5751 C.3     1  UNL1        0.1123
@<TRIPOS>BOND
     1    17    18    1
     2    18    19    1
     3    18    11    1
     4    11    12   ar
     5    12    13   ar
     6    13    14   ar
     7    14     1    1
     8     1     2    2
     9     2     3    1
    10     3     4   ar
    11     4     5    1
    12     4     6   ar
    13     6     7   ar
    14     7     8   ar
    15     8     9   ar
    16     9    10    1
    17    14    15   ar
    18    15    16   ar
    19    16    11   ar
    20     9     3   ar
@<TRIPOS>MOLECULE
*****
 19 20 0 0 0
SMALL
GASTEIGER

@<TRIPOS>ATOM
      1 C         137.9809  140.0196  160.8628 C.2     1  UNL1        0.0192
      2 C         138.7826  140.4558  162.0532 C.2     1  UNL1        0.0046
      3 C         138.6857  139.6951  163.3423 C.ar    1  UNL1        0.0381
      4 C         139.0350  138.2367  163.3806 C.ar    1  UNL1        0.1409
      5 F         139.4811  137.5393  162.1299 F       1  UNL1       -0.2041
      6 C         138.9381  137.4760  164.6697 C.ar    1  UNL1        0.0297
      7 C         138.4919  138.1735  165.9205 C.ar    1  UNL1        0.0032
      8 C         138.1427  139.6318  165.8822 C.ar    1  UNL1        0.0115
      9 C         138.2396  140.3925  164.5931 C.ar    1  UNL1        0.0598
     10 CL        137.8904  141.8508  164.5547 Cl      1  UNL1       -0.0822
     11 C         138.2716  142.3019  156.9954 C.ar    1  UNL1        0.0674
     12 C         138.8199  142.8950  158.2593 C.ar    1  UNL1        0.0176
     13 C         138.7230  142.1343  159.5485 C.ar    1  UNL1        0.0204
     14 C         138.0778  140.7804  159.5737 C.ar    1  UNL1        0.0814
     15 N         137.5295  140.1873  158.3098 N.ar    1  UNL1       -0.2425
     16 C         137.6264  140.9480  157.0206 C.ar    1  UNL1        0.1133
     17 C         138.7369  144.5166  155.7193 C.3     1  UNL1        0.1123
     18 N         138.3685  143.0627  155.7063 N.pl3   1  UNL1       -0.3029
     19 C         138.0970  142.3695  154.4041 C.3     1  UNL1        0.1123
@<TRIPOS>BOND
     1    17    18    1
     2    18    19    1
     3    18    11    1
     4    11    12   ar
     5    12    13   ar
     6    13    14   ar
     7    14     1    1
     8     1     2    2
     9     2     3    1
    10     3     4   ar
    11     4     5    1
    12     4     6   ar
    13     6     7   ar
    14     7     8   ar
    15     8     9   ar
    16     9    10    1
    17    14    15   ar
    18    15    16   ar
    19    16    11   ar
    20     9     3   ar
