@<TRIPOS>MOLECULE
*****
 31 35 0 0 0
SMALL
GASTEIGER

@<TRIPOS>ATOM
      1 C         143.8506  142.2248  161.2897 C.2     1  UNL1        0.0866
      2 N         144.3064  143.6390  161.4954 N.2     1  UNL1       -0.1523
      3 N         144.2712  143.9280  162.9669 N.2     1  UNL1       -0.1523
      4 C         143.7936  142.6923  163.6707 C.2     1  UNL1        0.0858
      5 C         143.5337  141.6398  162.6341 C.3     1  UNL1        0.0883
      6 C         143.0562  140.4042  163.3378 C.3     1  UNL1        0.0384
      7 C         143.0210  140.6931  164.8093 C.ar    1  UNL1       -0.0202
      8 C         142.6328  139.8512  165.9884 C.ar    1  UNL1       -0.0045
      9 C         142.7004  140.4234  167.3733 C.ar    1  UNL1       -0.0027
     10 C         143.1562  141.8376  167.5790 C.ar    1  UNL1        0.0022
     11 C         143.5444  142.6795  166.3999 C.ar    1  UNL1       -0.0014
     12 C         143.4768  142.1073  165.0150 C.ar    1  UNL1        0.0115
     13 C         143.0908  139.9299  158.2531 C.ar    1  UNL1        0.0710
     14 C         142.9190  140.2890  159.6993 C.ar    1  UNL1        0.0165
     15 C         143.7324  141.5195  159.9712 C.ar    1  UNL1        0.0233
     16 C         144.4071  141.9211  158.6930 C.ar    1  UNL1        0.0373
     17 S         144.0105  140.9386  157.6311 S.2     1  UNL1       -0.0780
     18 C         141.8185  137.6030  156.8508 C.1     1  UNL1       -0.0534
     19 C         142.4547  138.7664  157.5519 C.1     1  UNL1       -0.0554
     20 C         141.1823  136.4395  156.1497 C.3     1  UNL1        0.2182
     21 O         141.8827  135.1137  156.1095 O.3     1  UNL1       -0.3374
     22 C         143.1105  134.8885  156.9413 C.3     1  UNL1        0.1755
     23 C         143.4350  133.5124  157.4422 C.3     1  UNL1        0.1743
     24 C         145.3727  131.8673  157.9797 C.3     1  UNL1        0.1742
     25 O         144.7697  133.2378  158.0691 O.3     1  UNL1       -0.3484
     26 C         143.2238  142.4099  168.9640 C.3     1  UNL1        0.1556
     27 N         141.9903  142.4592  169.8161 N.ar    1  UNL1       -0.2255
     28 C         141.8314  141.8414  171.1737 C.ar    1  UNL1        0.1975
     29 N         140.4421  142.1354  171.6569 N.ar    1  UNL1       -0.2007
     30 C         139.7424  142.9348  170.5979 C.ar    1  UNL1        0.2210
     31 N         140.6993  143.1349  169.4603 N.ar    1  UNL1       -0.1448
@<TRIPOS>BOND
     1    24    25    1
     2    25    23    1
     3    23    22    1
     4    22    21    1
     5    21    20    1
     6    20    18    1
     7    18    19    3
     8    19    13    1
     9    13    14   ar
    10    14    15   ar
    11    15     1    1
    12     1     2    2
    13     2     3    1
    14     3     4    2
    15     4     5    1
    16     5     6    1
    17     6     7    1
    18     7     8   ar
    19     8     9   ar
    20     9    10   ar
    21    10    26    1
    22    26    27    1
    23    27    28   ar
    24    28    29   ar
    25    29    30   ar
    26    30    31   ar
    27    10    11   ar
    28    11    12   ar
    29    15    16   ar
    30    16    17   ar
    31    17    13   ar
    32     5     1    1
    33    12     7   ar
    34    12     4    1
    35    31    27   ar
@<TRIPOS>MOLECULE
*****
 31 35 0 0 0
SMALL
GASTEIGER

@<TRIPOS>ATOM
      1 C         140.2043  140.8373  161.7965 C.2     1  UNL1        0.0866
      2 N         141.3888  141.7062  162.0999 N.2     1  UNL1       -0.1523
      3 N         141.5505  141.7657  163.5900 N.2     1  UNL1       -0.1523
      4 C         140.4660  140.9334  164.2075 C.2     1  UNL1        0.0858
      5 C         139.6340  140.3597  163.0991 C.3     1  UNL1        0.0883
      6 C         138.5495  139.5276  163.7166 C.3     1  UNL1        0.0384
      7 C         138.7112  139.5869  165.2067 C.ar    1  UNL1       -0.0202
      8 C         137.9329  138.9621  166.3264 C.ar    1  UNL1       -0.0045
      9 C         138.3391  139.2062  167.7495 C.ar    1  UNL1       -0.0027
     10 C         139.5236  140.0751  168.0529 C.ar    1  UNL1        0.0022
     11 C         140.3018  140.6999  166.9332 C.ar    1  UNL1       -0.0014
     12 C         139.8956  140.4558  165.5101 C.ar    1  UNL1        0.0115
     13 C         138.4167  140.5827  158.3606 C.ar    1  UNL1        0.0710
     14 C         138.6285  141.2643  159.6799 C.ar    1  UNL1        0.0165
     15 C         139.6819  140.5044  160.4304 C.ar    1  UNL1        0.0233
     16 C         140.1211  139.3532  159.5749 C.ar    1  UNL1        0.0373
     17 S         139.3392  139.4016  158.2957 S.2     1  UNL1       -0.0780
     18 C         136.4871  141.4325  156.2266 C.1     1  UNL1       -0.0534
     19 C         137.4519  141.0076  157.2936 C.1     1  UNL1       -0.0554
     20 C         135.5223  141.8574  155.1595 C.3     1  UNL1        0.2182
     21 O         134.3535  140.9831  154.8138 O.3     1  UNL1       -0.3374
     22 C         133.1097  141.0282  155.6509 C.3     1  UNL1        0.1755
     23 C         132.6625  139.8056  156.3962 C.3     1  UNL1        0.1743
     24 C         133.1932  138.4413  158.5426 C.3     1  UNL1        0.1742
     25 O         133.6387  139.0449  157.2437 O.3     1  UNL1       -0.3484
     26 C         139.9298  140.3191  169.4762 C.3     1  UNL1        0.1556
     27 N         140.7116  141.5486  169.8327 N.ar    1  UNL1       -0.2255
     28 C         140.1532  142.9306  170.0005 C.ar    1  UNL1        0.1975
     29 N         141.2855  143.8481  170.3556 N.ar    1  UNL1       -0.2007
     30 C         142.5438  143.0330  170.4072 C.ar    1  UNL1        0.2210
     31 N         142.1890  141.6119  170.0841 N.ar    1  UNL1       -0.1448
@<TRIPOS>BOND
     1    24    25    1
     2    25    23    1
     3    23    22    1
     4    22    21    1
     5    21    20    1
     6    20    18    1
     7    18    19    3
     8    19    13    1
     9    13    14   ar
    10    14    15   ar
    11    15     1    1
    12     1     2    2
    13     2     3    1
    14     3     4    2
    15     4     5    1
    16     5     6    1
    17     6     7    1
    18     7     8   ar
    19     8     9   ar
    20     9    10   ar
    21    10    26    1
    22    26    27    1
    23    27    28   ar
    24    28    29   ar
    25    29    30   ar
    26    30    31   ar
    27    10    11   ar
    28    11    12   ar
    29    15    16   ar
    30    16    17   ar
    31    17    13   ar
    32     5     1    1
    33    12     7   ar
    34    12     4    1
    35    31    27   ar
@<TRIPOS>MOLECULE
*****
 31 35 0 0 0
SMALL
GASTEIGER

@<TRIPOS>ATOM
      1 C         138.6662  141.6254  163.1278 C.2     1  UNL1        0.0866
      2 N         137.3985  142.2360  162.6082 N.2     1  UNL1       -0.1523
      3 N         137.7271  142.9887  161.3529 N.2     1  UNL1       -0.1523
      4 C         139.1979  142.8432  161.0968 C.2     1  UNL1        0.0858
      5 C         139.7783  142.0007  162.1938 C.3     1  UNL1        0.0883
      6 C         141.2491  141.8553  161.9377 C.3     1  UNL1        0.0384
      7 C         141.5777  142.6079  160.6825 C.ar    1  UNL1       -0.0202
      8 C         142.8675  142.8161  159.9456 C.ar    1  UNL1       -0.0045
      9 C         142.8896  143.6349  158.6891 C.ar    1  UNL1       -0.0027
     10 C         141.6219  144.2455  158.1694 C.ar    1  UNL1        0.0022
     11 C         140.3321  144.0373  158.9062 C.ar    1  UNL1       -0.0014
     12 C         140.3100  143.2185  160.1628 C.ar    1  UNL1        0.0115
     13 C         139.2358  140.0974  166.6501 C.ar    1  UNL1        0.0710
     14 C         139.2542  141.2667  165.7106 C.ar    1  UNL1        0.0165
     15 C         138.7986  140.7868  164.3644 C.ar    1  UNL1        0.0233
     16 C         138.4986  139.3210  164.4719 C.ar    1  UNL1        0.0373
     17 S         138.7689  138.8950  165.8846 S.2     1  UNL1       -0.0780
     18 C         139.9989  140.1541  169.5508 C.1     1  UNL1       -0.0534
     19 C         139.6174  140.1258  168.1005 C.1     1  UNL1       -0.0554
     20 C         140.3804  140.1823  171.0012 C.3     1  UNL1        0.2182
     21 O         141.6009  140.9352  171.4412 O.3     1  UNL1       -0.3374
     22 C         142.4996  141.5689  170.4210 C.3     1  UNL1        0.1755
     23 C         142.8134  143.0333  170.5044 C.3     1  UNL1        0.1743
     24 C         140.4564  143.7921  169.7178 C.3     1  UNL1        0.1742
     25 O         141.7009  144.0392  170.5179 O.3     1  UNL1       -0.3484
     26 C         141.6440  145.0644  156.9127 C.3     1  UNL1        0.1556
     27 N         140.3588  145.4155  156.2236 N.ar    1  UNL1       -0.2255
     28 C         139.7381  146.7794  156.1573 C.ar    1  UNL1        0.1975
     29 N         138.4643  146.6713  155.3726 N.ar    1  UNL1       -0.2007
     30 C         138.2978  145.2405  154.9538 C.ar    1  UNL1        0.2210
     31 N         139.4687  144.4644  155.4799 N.ar    1  UNL1       -0.1448
@<TRIPOS>BOND
     1    24    25    1
     2    25    23    1
     3    23    22    1
     4    22    21    1
     5    21    20    1
     6    20    18    1
     7    18    19    3
     8    19    13    1
     9    13    14   ar
    10    14    15   ar
    11    15     1    1
    12     1     2    2
    13     2     3    1
    14     3     4    2
    15     4     5    1
    16     5     6    1
    17     6     7    1
    18     7     8   ar
    19     8     9   ar
    20     9    10   ar
    21    10    26    1
    22    26    27    1
    23    27    28   ar
    24    28    29   ar
    25    29    30   ar
    26    30    31   ar
    27    10    11   ar
    28    11    12   ar
    29    15    16   ar
    30    16    17   ar
    31    17    13   ar
    32     5     1    1
    33    12     7   ar
    34    12     4    1
    35    31    27   ar
@<TRIPOS>MOLECULE
*****
 31 35 0 0 0
SMALL
GASTEIGER

@<TRIPOS>ATOM
      1 C         141.2460  144.7418  162.1937 C.2     1  UNL1        0.0866
      2 N         140.0612  145.6143  162.4855 N.2     1  UNL1       -0.1523
      3 N         139.5368  146.1357  161.1804 N.2     1  UNL1       -0.1523
      4 C         140.3975  145.5853  160.0820 C.2     1  UNL1        0.0858
      5 C         141.4538  144.7238  160.7083 C.3     1  UNL1        0.0883
      6 C         142.3144  144.1735  159.6099 C.3     1  UNL1        0.0384
      7 C         141.7901  144.6948  158.3048 C.ar    1  UNL1       -0.0202
      8 C         142.2383  144.4877  156.8884 C.ar    1  UNL1       -0.0045
      9 C         141.5019  145.1532  155.7638 C.ar    1  UNL1       -0.0027
     10 C         140.3171  146.0257  156.0556 C.ar    1  UNL1        0.0022
     11 C         139.8689  146.2328  157.4720 C.ar    1  UNL1       -0.0014
     12 C         140.6053  145.5674  158.5966 C.ar    1  UNL1        0.0115
     13 C         142.7381  142.5680  165.0422 C.ar    1  UNL1        0.0710
     14 C         141.5659  143.0566  164.2438 C.ar    1  UNL1        0.0165
     15 C         142.0769  144.0148  163.2091 C.ar    1  UNL1        0.0233
     16 C         143.5649  144.1185  163.3680 C.ar    1  UNL1        0.0373
     17 S         143.9735  143.2243  164.5009 S.2     1  UNL1       -0.0780
     18 C         142.6303  140.6203  167.3213 C.1     1  UNL1       -0.0534
     19 C         142.6842  141.5941  166.1817 C.1     1  UNL1       -0.0554
     20 C         142.5764  139.6464  168.4609 C.3     1  UNL1        0.2182
     21 O         143.0503  140.0588  169.8230 O.3     1  UNL1       -0.3374
     22 C         142.0923  140.6851  170.7926 C.3     1  UNL1        0.1755
     23 C         142.1613  142.1576  171.0700 C.3     1  UNL1        0.1743
     24 C         140.5782  143.1638  169.2724 C.3     1  UNL1        0.1742
     25 O         141.0082  143.0445  170.7044 O.3     1  UNL1       -0.3484
     26 C         139.5807  146.6912  154.9309 C.3     1  UNL1        0.1556
     27 N         139.5215  148.1881  154.8551 N.ar    1  UNL1       -0.2255
     28 C         140.3265  149.0567  153.9347 C.ar    1  UNL1        0.1975
     29 N         139.9494  150.4846  154.1970 N.ar    1  UNL1       -0.2007
     30 C         138.9112  150.4985  155.2797 C.ar    1  UNL1        0.2210
     31 N         138.6468  149.0791  155.6863 N.ar    1  UNL1       -0.1448
@<TRIPOS>BOND
     1    24    25    1
     2    25    23    1
     3    23    22    1
     4    22    21    1
     5    21    20    1
     6    20    18    1
     7    18    19    3
     8    19    13    1
     9    13    14   ar
    10    14    15   ar
    11    15     1    1
    12     1     2    2
    13     2     3    1
    14     3     4    2
    15     4     5    1
    16     5     6    1
    17     6     7    1
    18     7     8   ar
    19     8     9   ar
    20     9    10   ar
    21    10    26    1
    22    26    27    1
    23    27    28   ar
    24    28    29   ar
    25    29    30   ar
    26    30    31   ar
    27    10    11   ar
    28    11    12   ar
    29    15    16   ar
    30    16    17   ar
    31    17    13   ar
    32     5     1    1
    33    12     7   ar
    34    12     4    1
    35    31    27   ar
@<TRIPOS>MOLECULE
*****
 31 35 0 0 0
SMALL
GASTEIGER

@<TRIPOS>ATOM
      1 C         141.1408  144.2019  162.1038 C.2     1  UNL1        0.0866
      2 N         140.4993  145.0833  163.1341 N.2     1  UNL1       -0.1523
      3 N         140.6440  144.4163  164.4698 N.2     1  UNL1       -0.1523
      4 C         141.3751  143.1225  164.2650 C.2     1  UNL1        0.0858
      5 C         141.6820  142.9901  162.8027 C.3     1  UNL1        0.0883
      6 C         142.4130  141.6964  162.5979 C.3     1  UNL1        0.0384
      7 C         142.5579  141.0293  163.9336 C.ar    1  UNL1       -0.0202
      8 C         143.1910  139.7331  164.3447 C.ar    1  UNL1       -0.0045
      9 C         143.1826  139.3184  165.7862 C.ar    1  UNL1       -0.0027
     10 C         142.5411  140.1998  166.8165 C.ar    1  UNL1        0.0022
     11 C         141.9079  141.4959  166.4054 C.ar    1  UNL1       -0.0014
     12 C         141.9163  141.9107  164.9639 C.ar    1  UNL1        0.0115
     13 C         140.7807  145.3915  158.4268 C.ar    1  UNL1        0.0710
     14 C         140.3432  145.4185  159.8613 C.ar    1  UNL1        0.0165
     15 C         141.2261  144.4830  160.6328 C.ar    1  UNL1        0.0233
     16 C         142.2093  143.8777  159.6752 C.ar    1  UNL1        0.0373
     17 S         141.9340  144.4393  158.3117 S.2     1  UNL1       -0.0780
     18 C         139.5630  146.9656  156.1820 C.1     1  UNL1       -0.0534
     19 C         140.1718  146.1786  157.3044 C.1     1  UNL1       -0.0554
     20 C         138.9541  147.7526  155.0596 C.3     1  UNL1        0.2182
     21 O         139.1440  149.2392  154.9965 O.3     1  UNL1       -0.3374
     22 C         138.3846  150.1327  155.9319 C.3     1  UNL1        0.1755
     23 C         139.0656  151.3118  156.5611 C.3     1  UNL1        0.1743
     24 C         138.5859  152.8769  154.5435 C.3     1  UNL1        0.1742
     25 O         138.8434  152.6888  156.0092 O.3     1  UNL1       -0.3484
     26 C         142.5327  139.7850  168.2581 C.3     1  UNL1        0.1556
     27 N         141.4127  140.2185  169.1567 N.ar    1  UNL1       -0.2255
     28 C         141.5050  141.2413  170.2499 C.ar    1  UNL1        0.1975
     29 N         140.1531  141.3602  170.8888 N.ar    1  UNL1       -0.2007
     30 C         139.2252  140.4108  170.1905 C.ar    1  UNL1        0.2210
     31 N         140.0037  139.7052  169.1200 N.ar    1  UNL1       -0.1448
@<TRIPOS>BOND
     1    24    25    1
     2    25    23    1
     3    23    22    1
     4    22    21    1
     5    21    20    1
     6    20    18    1
     7    18    19    3
     8    19    13    1
     9    13    14   ar
    10    14    15   ar
    11    15     1    1
    12     1     2    2
    13     2     3    1
    14     3     4    2
    15     4     5    1
    16     5     6    1
    17     6     7    1
    18     7     8   ar
    19     8     9   ar
    20     9    10   ar
    21    10    26    1
    22    26    27    1
    23    27    28   ar
    24    28    29   ar
    25    29    30   ar
    26    30    31   ar
    27    10    11   ar
    28    11    12   ar
    29    15    16   ar
    30    16    17   ar
    31    17    13   ar
    32     5     1    1
    33    12     7   ar
    34    12     4    1
    35    31    27   ar
@<TRIPOS>MOLECULE
*****
 31 35 0 0 0
SMALL
GASTEIGER

@<TRIPOS>ATOM
      1 C         142.6573  139.8633  162.2146 C.2     1  UNL1        0.0866
      2 N         143.7170  140.6429  162.9353 N.2     1  UNL1       -0.1523
      3 N         143.2628  140.8439  164.3507 N.2     1  UNL1       -0.1523
      4 C         141.9223  140.1886  164.5048 C.2     1  UNL1        0.0858
      5 C         141.5481  139.5826  163.1846 C.3     1  UNL1        0.0883
      6 C         140.2076  138.9273  163.3387 C.3     1  UNL1        0.0384
      7 C         139.7534  139.1283  164.7541 C.ar    1  UNL1       -0.0202
      8 C         138.5117  138.7023  165.4798 C.ar    1  UNL1       -0.0045
      9 C         138.3297  139.0557  166.9261 C.ar    1  UNL1       -0.0027
     10 C         139.3894  139.8352  167.6468 C.ar    1  UNL1        0.0022
     11 C         140.6311  140.2613  166.9211 C.ar    1  UNL1       -0.0014
     12 C         140.8131  139.9078  165.4748 C.ar    1  UNL1        0.0115
     13 C         142.7355  138.0672  158.7747 C.ar    1  UNL1        0.0710
     14 C         142.6778  138.0262  160.2731 C.ar    1  UNL1        0.0165
     15 C         142.6994  139.4391  160.7765 C.ar    1  UNL1        0.0233
     16 C         142.7704  140.3532  159.5893 C.ar    1  UNL1        0.0373
     17 S         142.7927  139.5053  158.3521 S.2     1  UNL1       -0.0780
     18 C         142.7362  135.6901  156.9446 C.1     1  UNL1       -0.0534
     19 C         142.7358  136.8786  157.8596 C.1     1  UNL1       -0.0554
     20 C         142.7365  134.5016  156.0295 C.3     1  UNL1        0.2182
     21 O         142.1339  133.2052  156.4836 O.3     1  UNL1       -0.3374
     22 C         142.7071  131.9038  156.0064 C.3     1  UNL1        0.1755
     23 C         143.2213  130.9023  156.9976 C.3     1  UNL1        0.1743
     24 C         145.2630  132.1919  157.9560 C.3     1  UNL1        0.1742
     25 O         144.6625  130.9294  157.4125 O.3     1  UNL1       -0.3484
     26 C         139.2074  140.1887  169.0932 C.3     1  UNL1        0.1556
     27 N         140.1687  141.1252  169.7631 N.ar    1  UNL1       -0.2255
     28 C         140.1060  142.6235  169.7326 C.ar    1  UNL1        0.1975
     29 N         141.2601  143.1521  170.5318 N.ar    1  UNL1       -0.2007
     30 C         142.0360  141.9804  171.0563 C.ar    1  UNL1        0.2210
     31 N         141.3615  140.7277  170.5812 N.ar    1  UNL1       -0.1448
@<TRIPOS>BOND
     1    24    25    1
     2    25    23    1
     3    23    22    1
     4    22    21    1
     5    21    20    1
     6    20    18    1
     7    18    19    3
     8    19    13    1
     9    13    14   ar
    10    14    15   ar
    11    15     1    1
    12     1     2    2
    13     2     3    1
    14     3     4    2
    15     4     5    1
    16     5     6    1
    17     6     7    1
    18     7     8   ar
    19     8     9   ar
    20     9    10   ar
    21    10    26    1
    22    26    27    1
    23    27    28   ar
    24    28    29   ar
    25    29    30   ar
    26    30    31   ar
    27    10    11   ar
    28    11    12   ar
    29    15    16   ar
    30    16    17   ar
    31    17    13   ar
    32     5     1    1
    33    12     7   ar
    34    12     4    1
    35    31    27   ar
@<TRIPOS>MOLECULE
*****
 31 35 0 0 0
SMALL
GASTEIGER

@<TRIPOS>ATOM
      1 C         139.3365  139.6245  161.7651 C.2     1  UNL1        0.0866
      2 N         138.0021  140.1108  162.2476 N.2     1  UNL1       -0.1523
      3 N         138.0896  140.3080  163.7321 N.2     1  UNL1       -0.1523
      4 C         139.4782  139.9435  164.1670 C.2     1  UNL1        0.0858
      5 C         140.2488  139.5211  162.9514 C.3     1  UNL1        0.0883
      6 C         141.6373  139.1566  163.3863 C.3     1  UNL1        0.0384
      7 C         141.7249  139.3538  164.8707 C.ar    1  UNL1       -0.0202
      8 C         142.8473  139.1533  165.8454 C.ar    1  UNL1       -0.0045
      9 C         142.6353  139.4391  167.3025 C.ar    1  UNL1       -0.0027
     10 C         141.3008  139.9254  167.7850 C.ar    1  UNL1        0.0022
     11 C         140.1784  140.1259  166.8104 C.ar    1  UNL1       -0.0014
     12 C         140.3904  139.8401  165.3532 C.ar    1  UNL1        0.0115
     13 C         140.8468  138.4143  158.4007 C.ar    1  UNL1        0.0710
     14 C         140.8753  138.4871  159.8986 C.ar    1  UNL1        0.0165
     15 C         139.6957  139.2988  160.3457 C.ar    1  UNL1        0.0233
     16 C         138.9382  139.7275  159.1240 C.ar    1  UNL1        0.0373
     17 S         139.6497  139.1808  157.9219 S.2     1  UNL1       -0.0780
     18 C         142.8352  136.9862  156.6668 C.1     1  UNL1       -0.0534
     19 C         141.8411  137.7002  157.5337 C.1     1  UNL1       -0.0554
     20 C         143.8294  136.2721  155.7997 C.3     1  UNL1        0.2182
     21 O         143.3546  135.4057  154.6711 O.3     1  UNL1       -0.3374
     22 C         143.0733  133.9516  154.9090 C.3     1  UNL1        0.1755
     23 C         142.2060  133.5339  156.0594 C.3     1  UNL1        0.1743
     24 C         144.2484  133.1554  157.6200 C.3     1  UNL1        0.1742
     25 O         142.8187  132.8778  157.2610 O.3     1  UNL1       -0.3484
     26 C         141.0889  140.2113  169.2422 C.3     1  UNL1        0.1556
     27 N         140.7261  141.5962  169.6898 N.ar    1  UNL1       -0.2255
     28 C         139.5862  141.9601  170.5943 C.ar    1  UNL1        0.1975
     29 N         139.5951  143.4492  170.7751 N.ar    1  UNL1       -0.2007
     30 C         140.7406  144.0055  169.9823 C.ar    1  UNL1        0.2210
     31 N         141.4395  142.8603  169.3116 N.ar    1  UNL1       -0.1448
@<TRIPOS>BOND
     1    24    25    1
     2    25    23    1
     3    23    22    1
     4    22    21    1
     5    21    20    1
     6    20    18    1
     7    18    19    3
     8    19    13    1
     9    13    14   ar
    10    14    15   ar
    11    15     1    1
    12     1     2    2
    13     2     3    1
    14     3     4    2
    15     4     5    1
    16     5     6    1
    17     6     7    1
    18     7     8   ar
    19     8     9   ar
    20     9    10   ar
    21    10    26    1
    22    26    27    1
    23    27    28   ar
    24    28    29   ar
    25    29    30   ar
    26    30    31   ar
    27    10    11   ar
    28    11    12   ar
    29    15    16   ar
    30    16    17   ar
    31    17    13   ar
    32     5     1    1
    33    12     7   ar
    34    12     4    1
    35    31    27   ar
@<TRIPOS>MOLECULE
*****
 31 35 0 0 0
SMALL
GASTEIGER

@<TRIPOS>ATOM
      1 C         141.9573  139.5644  161.9656 C.2     1  UNL1        0.0866
      2 N         142.9682  140.5348  162.5008 N.2     1  UNL1       -0.1523
      3 N         142.6142  140.8334  163.9275 N.2     1  UNL1       -0.1523
      4 C         141.3843  140.0476  164.2740 C.2     1  UNL1        0.0858
      5 C         140.9784  139.2633  163.0615 C.3     1  UNL1        0.0883
      6 C         139.7486  138.4776  163.4081 C.3     1  UNL1        0.0384
      7 C         139.3944  138.7761  164.8348 C.ar    1  UNL1       -0.0202
      8 C         138.2820  138.2898  165.7157 C.ar    1  UNL1       -0.0045
      9 C         138.1806  138.7738  167.1318 C.ar    1  UNL1       -0.0027
     10 C         139.1915  139.7442  167.6670 C.ar    1  UNL1        0.0022
     11 C         140.3039  140.2305  166.7861 C.ar    1  UNL1       -0.0014
     12 C         140.4054  139.7465  165.3700 C.ar    1  UNL1        0.0115
     13 C         141.1524  138.2584  158.4002 C.ar    1  UNL1        0.0710
     14 C         140.7236  138.8859  159.6934 C.ar    1  UNL1        0.0165
     15 C         141.9300  138.9951  160.5781 C.ar    1  UNL1        0.0233
     16 C         143.1045  138.4351  159.8317 C.ar    1  UNL1        0.0373
     17 S         142.6238  137.9797  158.4856 S.2     1  UNL1       -0.0780
     18 C         139.3786  137.6648  156.0548 C.1     1  UNL1       -0.0534
     19 C         140.2655  137.9616  157.2275 C.1     1  UNL1       -0.0554
     20 C         138.4916  137.3681  154.8821 C.3     1  UNL1        0.2182
     21 O         137.0344  137.7198  154.9359 O.3     1  UNL1       -0.3374
     22 C         136.5471  138.9944  154.3131 C.3     1  UNL1        0.1755
     23 C         136.5440  140.2652  155.1099 C.3     1  UNL1        0.1743
     24 C         137.8301  140.8594  157.2877 C.3     1  UNL1        0.1742
     25 O         136.6612  140.2138  156.6044 O.3     1  UNL1       -0.3484
     26 C         139.0900  140.2282  169.0831 C.3     1  UNL1        0.1556
     27 N         140.3351  140.4765  169.8819 N.ar    1  UNL1       -0.2255
     28 C         140.5779  141.6395  170.7976 C.ar    1  UNL1        0.1975
     29 N         141.9489  141.4871  171.3869 N.ar    1  UNL1       -0.2007
     30 C         142.5534  140.2299  170.8355 C.ar    1  UNL1        0.2210
     31 N         141.5560  139.6053  169.9054 N.ar    1  UNL1       -0.1448
@<TRIPOS>BOND
     1    24    25    1
     2    25    23    1
     3    23    22    1
     4    22    21    1
     5    21    20    1
     6    20    18    1
     7    18    19    3
     8    19    13    1
     9    13    14   ar
    10    14    15   ar
    11    15     1    1
    12     1     2    2
    13     2     3    1
    14     3     4    2
    15     4     5    1
    16     5     6    1
    17     6     7    1
    18     7     8   ar
    19     8     9   ar
    20     9    10   ar
    21    10    26    1
    22    26    27    1
    23    27    28   ar
    24    28    29   ar
    25    29    30   ar
    26    30    31   ar
    27    10    11   ar
    28    11    12   ar
    29    15    16   ar
    30    16    17   ar
    31    17    13   ar
    32     5     1    1
    33    12     7   ar
    34    12     4    1
    35    31    27   ar
@<TRIPOS>MOLECULE
*****
 31 35 0 0 0
SMALL
GASTEIGER

@<TRIPOS>ATOM
      1 C         141.0207  140.1467  161.8470 C.2     1  UNL1        0.0866
      2 N         142.1916  140.9997  162.2358 N.2     1  UNL1       -0.1523
      3 N         142.1473  141.1983  163.7220 N.2     1  UNL1       -0.1523
      4 C         140.9489  140.4679  164.2516 C.2     1  UNL1        0.0858
      5 C         140.2526  139.8181  163.0928 C.3     1  UNL1        0.0883
      6 C         139.0542  139.0878  163.6225 C.3     1  UNL1        0.0384
      7 C         139.0099  139.2863  165.1086 C.ar    1  UNL1       -0.0202
      8 C         138.0545  138.8006  166.1580 C.ar    1  UNL1       -0.0045
      9 C         138.2701  139.1678  167.5963 C.ar    1  UNL1       -0.0027
     10 C         139.4411  140.0208  167.9851 C.ar    1  UNL1        0.0022
     11 C         140.3964  140.5066  166.9357 C.ar    1  UNL1       -0.0014
     12 C         140.1808  140.1393  165.4975 C.ar    1  UNL1        0.0115
     13 C         140.6857  138.4902  158.3528 C.ar    1  UNL1        0.0710
     14 C         141.3426  138.5906  159.6976 C.ar    1  UNL1        0.0165
     15 C         140.6779  139.7006  160.4565 C.ar    1  UNL1        0.0233
     16 C         139.6101  140.2864  159.5807 C.ar    1  UNL1        0.0373
     17 S         139.6150  139.5382  158.2805 S.2     1  UNL1       -0.0780
     18 C         141.3898  136.5365  156.1879 C.1     1  UNL1       -0.0534
     19 C         141.0378  137.5134  157.2703 C.1     1  UNL1       -0.0554
     20 C         141.7418  135.5596  155.1054 C.3     1  UNL1        0.2182
     21 O         142.9661  134.7030  155.2372 O.3     1  UNL1       -0.3374
     22 C         143.0790  133.7251  156.3690 C.3     1  UNL1        0.1755
     23 C         143.2649  132.2645  156.0825 C.3     1  UNL1        0.1743
     24 C         144.1087  130.3791  157.6583 C.3     1  UNL1        0.1742
     25 O         142.9963  131.2498  157.1540 O.3     1  UNL1       -0.3484
     26 C         139.6566  140.3881  169.4234 C.3     1  UNL1        0.1556
     27 N         140.5538  141.5368  169.7778 N.ar    1  UNL1       -0.2255
     28 C         140.1262  142.9607  169.9766 C.ar    1  UNL1        0.1975
     29 N         141.3442  143.7672  170.3173 N.ar    1  UNL1       -0.2007
     30 C         142.5246  142.8416  170.3292 C.ar    1  UNL1        0.2210
     31 N         142.0361  141.4632  169.9957 N.ar    1  UNL1       -0.1448
@<TRIPOS>BOND
     1    24    25    1
     2    25    23    1
     3    23    22    1
     4    22    21    1
     5    21    20    1
     6    20    18    1
     7    18    19    3
     8    19    13    1
     9    13    14   ar
    10    14    15   ar
    11    15     1    1
    12     1     2    2
    13     2     3    1
    14     3     4    2
    15     4     5    1
    16     5     6    1
    17     6     7    1
    18     7     8   ar
    19     8     9   ar
    20     9    10   ar
    21    10    26    1
    22    26    27    1
    23    27    28   ar
    24    28    29   ar
    25    29    30   ar
    26    30    31   ar
    27    10    11   ar
    28    11    12   ar
    29    15    16   ar
    30    16    17   ar
    31    17    13   ar
    32     5     1    1
    33    12     7   ar
    34    12     4    1
    35    31    27   ar
