@<TRIPOS>MOLECULE
*****
 28 31 0 0 0
SMALL
GASTEIGER

@<TRIPOS>ATOM
      1 N         141.2159  138.6168  161.6599 N.ar    1  UNL1       -0.2729
      2 C         140.3932  138.6654  160.4066 C.ar    1  UNL1        0.0860
      3 C         141.0343  138.3954  159.0776 C.ar    1  UNL1        0.0561
      4 C         142.4982  138.0770  159.0020 C.ar    1  UNL1        0.1453
      5 C         143.3209  138.0284  160.2554 C.ar    1  UNL1        0.0980
      6 C         142.6797  138.2983  161.5843 C.ar    1  UNL1        0.2679
      7 O         143.5024  138.2498  162.8377 O.2     1  UNL1       -0.2665
      8 C         139.2925  139.4266  165.6467 C.ar    1  UNL1        0.1385
      9 C         139.8005  140.5660  164.8138 C.ar    1  UNL1        0.0384
     10 C         140.4416  140.2961  163.4849 C.ar    1  UNL1        0.0207
     11 C         140.5747  138.8867  162.9889 C.ar    1  UNL1        0.0671
     12 C         140.0667  137.7473  163.8217 C.ar    1  UNL1        0.0207
     13 C         139.4256  138.0173  165.1507 C.ar    1  UNL1        0.0384
     14 O         138.6513  139.6966  166.9757 O.3     1  UNL1       -0.4777
     15 C         142.8509  140.4006  170.0980 C.3     1  UNL1        0.0897
     16 N         141.4353  140.2862  169.6152 N.3     1  UNL1       -0.2684
     17 C         140.2019  140.4577  170.4515 C.3     1  UNL1        0.0760
     18 C         139.0089  140.2577  169.5645 C.3     1  UNL1        0.0623
     19 C         139.5050  139.9626  168.1800 C.3     1  UNL1        0.1831
     20 C         141.0046  139.9802  168.2113 C.3     1  UNL1        0.1162
     21 O         143.1393  137.8071  157.6731 O.3     1  UNL1       -0.4704
     22 C         142.3408  137.1810  156.5685 C.3     1  UNL1        0.2320
     23 C         142.3327  135.6904  156.4006 C.ar    1  UNL1        0.0212
     24 C         141.4001  135.0517  155.4146 C.ar    1  UNL1       -0.0007
     25 C         141.3921  133.5611  155.2468 C.ar    1  UNL1       -0.0002
     26 C         142.3167  132.7093  156.0650 C.ar    1  UNL1       -0.0000
     27 C         143.2494  133.3480  157.0510 C.ar    1  UNL1       -0.0002
     28 C         143.2574  134.8385  157.2188 C.ar    1  UNL1       -0.0007
@<TRIPOS>BOND
     1    15    16    1
     2    16    17    1
     3    17    18    1
     4    18    19    1
     5    19    14    1
     6    14     8    1
     7     8     9   ar
     8     9    10   ar
     9    10    11   ar
    10    11     1    1
    11     1     2   ar
    12     2     3   ar
    13     3     4   ar
    14     4    21    1
    15    21    22    1
    16    22    23    1
    17    23    24   ar
    18    24    25   ar
    19    25    26   ar
    20    26    27   ar
    21    27    28   ar
    22     4     5   ar
    23     5     6   ar
    24     6     7    2
    25    11    12   ar
    26    12    13   ar
    27    19    20    1
    28    20    16    1
    29    13     8   ar
    30     6     1   ar
    31    28    23   ar
@<TRIPOS>MOLECULE
*****
 28 31 0 0 0
SMALL
GASTEIGER

@<TRIPOS>ATOM
      1 N         140.3240  138.6924  162.2593 N.ar    1  UNL1       -0.2729
      2 C         139.7007  137.5610  163.0218 C.ar    1  UNL1        0.0860
      3 C         138.9675  137.8332  164.3019 C.ar    1  UNL1        0.0561
      4 C         138.8576  139.2368  164.8193 C.ar    1  UNL1        0.1453
      5 C         139.4809  140.3683  164.0567 C.ar    1  UNL1        0.0980
      6 C         140.2141  140.0960  162.7768 C.ar    1  UNL1        0.2679
      7 O         140.8374  141.2274  162.0142 O.2     1  UNL1       -0.2665
      8 C         142.5236  137.8758  158.4195 C.ar    1  UNL1        0.1385
      9 C         143.2013  137.6401  159.7367 C.ar    1  UNL1        0.0384
     10 C         142.4681  137.9123  161.0166 C.ar    1  UNL1        0.0207
     11 C         141.0572  138.4202  160.9793 C.ar    1  UNL1        0.0671
     12 C         140.3795  138.6559  159.6621 C.ar    1  UNL1        0.0207
     13 C         141.1127  138.3836  158.3822 C.ar    1  UNL1        0.0384
     14 O         143.2568  137.6035  157.1394 O.3     1  UNL1       -0.4777
     15 C         142.7638  132.4173  156.2791 C.3     1  UNL1        0.0897
     16 N         142.8712  133.8966  156.0554 N.3     1  UNL1       -0.2684
     17 C         142.8352  134.5924  154.7269 C.3     1  UNL1        0.0760
     18 C         142.9752  136.0657  154.9714 C.3     1  UNL1        0.0623
     19 C         143.0978  136.2805  156.4508 C.3     1  UNL1        0.1831
     20 C         143.0336  134.9399  157.1208 C.3     1  UNL1        0.1162
     21 O         138.1245  139.5091  166.0993 O.3     1  UNL1       -0.4704
     22 C         138.8130  139.3045  167.4161 C.3     1  UNL1        0.2320
     23 C         139.4042  140.4757  168.1433 C.ar    1  UNL1        0.0212
     24 C         139.2156  140.6113  169.6252 C.ar    1  UNL1       -0.0007
     25 C         139.8068  141.7825  170.3523 C.ar    1  UNL1       -0.0002
     26 C         140.5865  142.8181  169.5976 C.ar    1  UNL1       -0.0000
     27 C         140.7751  142.6825  168.1157 C.ar    1  UNL1       -0.0002
     28 C         140.1839  141.5113  167.3886 C.ar    1  UNL1       -0.0007
@<TRIPOS>BOND
     1    15    16    1
     2    16    17    1
     3    17    18    1
     4    18    19    1
     5    19    14    1
     6    14     8    1
     7     8     9   ar
     8     9    10   ar
     9    10    11   ar
    10    11     1    1
    11     1     2   ar
    12     2     3   ar
    13     3     4   ar
    14     4    21    1
    15    21    22    1
    16    22    23    1
    17    23    24   ar
    18    24    25   ar
    19    25    26   ar
    20    26    27   ar
    21    27    28   ar
    22     4     5   ar
    23     5     6   ar
    24     6     7    2
    25    11    12   ar
    26    12    13   ar
    27    19    20    1
    28    20    16    1
    29    13     8   ar
    30     6     1   ar
    31    28    23   ar
@<TRIPOS>MOLECULE
*****
 28 31 0 0 0
SMALL
GASTEIGER

@<TRIPOS>ATOM
      1 N         139.5312  139.6576  160.2710 N.ar    1  UNL1       -0.2729
      2 C         139.1457  141.0642  159.9207 C.ar    1  UNL1        0.0860
      3 C         138.3197  141.8753  160.8747 C.ar    1  UNL1        0.0561
      4 C         137.8794  141.2796  162.1791 C.ar    1  UNL1        0.1453
      5 C         138.2651  139.8729  162.5294 C.ar    1  UNL1        0.0980
      6 C         139.0909  139.0620  161.5753 C.ar    1  UNL1        0.2679
      7 O         139.4765  137.6553  161.9256 O.2     1  UNL1       -0.2665
      8 C         142.0088  137.2246  157.4088 C.ar    1  UNL1        0.1385
      9 C         140.5675  137.5049  157.1021 C.ar    1  UNL1        0.0384
     10 C         139.7417  138.3159  158.0561 C.ar    1  UNL1        0.0207
     11 C         140.3572  138.8466  159.3169 C.ar    1  UNL1        0.0671
     12 C         141.7984  138.5663  159.6236 C.ar    1  UNL1        0.0207
     13 C         142.6243  137.7554  158.6696 C.ar    1  UNL1        0.0384
     14 O         142.8347  136.4136  156.4547 O.3     1  UNL1       -0.4777
     15 C         143.0087  131.1658  157.0123 C.3     1  UNL1        0.0897
     16 N         142.6363  132.5381  156.5348 N.3     1  UNL1       -0.2684
     17 C         141.6194  132.8587  155.4796 C.3     1  UNL1        0.0760
     18 C         141.5700  134.3495  155.3212 C.3     1  UNL1        0.0623
     19 C         142.5563  134.9503  156.2785 C.3     1  UNL1        0.1831
     20 C         143.2153  133.8308  157.0285 C.3     1  UNL1        0.1162
     21 O         137.0536  142.0906  163.1331 O.3     1  UNL1       -0.4704
     22 C         137.7207  142.8688  164.2282 C.3     1  UNL1        0.2320
     23 C         138.9619  143.6594  163.9376 C.ar    1  UNL1        0.0212
     24 C         140.2675  143.2614  164.5595 C.ar    1  UNL1       -0.0007
     25 C         141.5086  144.0520  164.2688 C.ar    1  UNL1       -0.0002
     26 C         141.4440  145.2407  163.3563 C.ar    1  UNL1       -0.0000
     27 C         140.1384  145.6388  162.7344 C.ar    1  UNL1       -0.0002
     28 C         138.8973  144.8482  163.0250 C.ar    1  UNL1       -0.0007
@<TRIPOS>BOND
     1    15    16    1
     2    16    17    1
     3    17    18    1
     4    18    19    1
     5    19    14    1
     6    14     8    1
     7     8     9   ar
     8     9    10   ar
     9    10    11   ar
    10    11     1    1
    11     1     2   ar
    12     2     3   ar
    13     3     4   ar
    14     4    21    1
    15    21    22    1
    16    22    23    1
    17    23    24   ar
    18    24    25   ar
    19    25    26   ar
    20    26    27   ar
    21    27    28   ar
    22     4     5   ar
    23     5     6   ar
    24     6     7    2
    25    11    12   ar
    26    12    13   ar
    27    19    20    1
    28    20    16    1
    29    13     8   ar
    30     6     1   ar
    31    28    23   ar
@<TRIPOS>MOLECULE
*****
 28 31 0 0 0
SMALL
GASTEIGER

@<TRIPOS>ATOM
      1 N         142.4707  141.2063  167.4408 N.ar    1  UNL1       -0.2729
      2 C         142.5702  139.7550  167.0752 C.ar    1  UNL1        0.0860
      3 C         142.7883  138.7255  168.1442 C.ar    1  UNL1        0.0561
      4 C         142.9067  139.1474  169.5787 C.ar    1  UNL1        0.1453
      5 C         142.8071  140.5988  169.9443 C.ar    1  UNL1        0.0980
      6 C         142.5891  141.6282  168.8754 C.ar    1  UNL1        0.2679
      7 O         142.4895  143.0796  169.2410 O.2     1  UNL1       -0.2665
      8 C         141.8167  144.2948  164.2340 C.ar    1  UNL1        0.1385
      9 C         143.2067  143.8341  164.5593 C.ar    1  UNL1        0.0384
     10 C         143.4246  142.8047  165.6283 C.ar    1  UNL1        0.0207
     11 C         142.2527  142.2358  166.3718 C.ar    1  UNL1        0.0671
     12 C         140.8627  142.6965  166.0465 C.ar    1  UNL1        0.0207
     13 C         140.6448  143.7259  164.9776 C.ar    1  UNL1        0.0384
     14 O         141.5987  145.3243  163.1650 O.3     1  UNL1       -0.4777
     15 C         143.1772  143.1588  158.6153 C.3     1  UNL1        0.0897
     16 N         142.3877  143.9340  159.6281 N.3     1  UNL1       -0.2684
     17 C         141.1316  144.7095  159.3612 C.3     1  UNL1        0.0760
     18 C         140.6833  145.3247  160.6537 C.3     1  UNL1        0.0623
     19 C         141.6621  144.9294  161.7194 C.3     1  UNL1        0.1831
     20 C         142.7155  144.0699  161.0855 C.3     1  UNL1        0.1162
     21 O         143.1247  138.1179  170.6477 O.3     1  UNL1       -0.4704
     22 C         143.9772  136.9158  170.3685 C.3     1  UNL1        0.2320
     23 C         144.8300  136.3321  171.4558 C.ar    1  UNL1        0.0212
     24 C         145.7838  137.2081  172.2127 C.ar    1  UNL1       -0.0007
     25 C         146.6365  136.6245  173.2999 C.ar    1  UNL1       -0.0002
     26 C         146.5354  135.1648  173.6303 C.ar    1  UNL1       -0.0000
     27 C         145.5816  134.2888  172.8734 C.ar    1  UNL1       -0.0002
     28 C         144.7289  134.8725  171.7862 C.ar    1  UNL1       -0.0007
@<TRIPOS>BOND
     1    15    16    1
     2    16    17    1
     3    17    18    1
     4    18    19    1
     5    19    14    1
     6    14     8    1
     7     8     9   ar
     8     9    10   ar
     9    10    11   ar
    10    11     1    1
    11     1     2   ar
    12     2     3   ar
    13     3     4   ar
    14     4    21    1
    15    21    22    1
    16    22    23    1
    17    23    24   ar
    18    24    25   ar
    19    25    26   ar
    20    26    27   ar
    21    27    28   ar
    22     4     5   ar
    23     5     6   ar
    24     6     7    2
    25    11    12   ar
    26    12    13   ar
    27    19    20    1
    28    20    16    1
    29    13     8   ar
    30     6     1   ar
    31    28    23   ar
@<TRIPOS>MOLECULE
*****
 28 31 0 0 0
SMALL
GASTEIGER

@<TRIPOS>ATOM
      1 N         141.3738  140.9332  167.3133 N.ar    1  UNL1       -0.2729
      2 C         142.2811  139.7786  167.0074 C.ar    1  UNL1        0.0860
      3 C         142.9264  139.0150  168.1257 C.ar    1  UNL1        0.0561
      4 C         142.6643  139.4061  169.5499 C.ar    1  UNL1        0.1453
      5 C         141.7569  140.5607  169.8558 C.ar    1  UNL1        0.0980
      6 C         141.1117  141.3243  168.7375 C.ar    1  UNL1        0.2679
      7 O         140.2043  142.4790  169.0434 O.2     1  UNL1       -0.2665
      8 C         139.4382  143.2241  163.9584 C.ar    1  UNL1        0.1385
      9 C         140.8500  143.5325  164.3604 C.ar    1  UNL1        0.0384
     10 C         141.4952  142.7689  165.4786 C.ar    1  UNL1        0.0207
     11 C         140.7286  141.6969  166.1950 C.ar    1  UNL1        0.0671
     12 C         139.3167  141.3885  165.7930 C.ar    1  UNL1        0.0207
     13 C         138.6716  142.1521  164.6747 C.ar    1  UNL1        0.0384
     14 O         138.7930  143.9877  162.8400 O.3     1  UNL1       -0.4777
     15 C         141.3839  145.6087  158.5342 C.3     1  UNL1        0.0897
     16 N         140.6203  144.7549  159.5028 N.3     1  UNL1       -0.2684
     17 C         140.1973  143.3329  159.2814 C.3     1  UNL1        0.0760
     18 C         139.4612  142.8725  160.5046 C.3     1  UNL1        0.0623
     19 C         139.4294  144.0099  161.4820 C.3     1  UNL1        0.1831
     20 C         140.1458  145.1733  160.8628 C.3     1  UNL1        0.1162
     21 O         143.3094  138.6425  170.6683 O.3     1  UNL1       -0.4704
     22 C         143.6544  137.1941  170.4862 C.3     1  UNL1        0.2320
     23 C         144.5842  136.5177  171.4496 C.ar    1  UNL1        0.0212
     24 C         144.5284  135.0292  171.6261 C.ar    1  UNL1       -0.0007
     25 C         145.4582  134.3529  172.5895 C.ar    1  UNL1       -0.0002
     26 C         146.4436  135.1651  173.3764 C.ar    1  UNL1       -0.0000
     27 C         146.4994  136.6536  173.1999 C.ar    1  UNL1       -0.0002
     28 C         145.5696  137.3299  172.2365 C.ar    1  UNL1       -0.0007
@<TRIPOS>BOND
     1    15    16    1
     2    16    17    1
     3    17    18    1
     4    18    19    1
     5    19    14    1
     6    14     8    1
     7     8     9   ar
     8     9    10   ar
     9    10    11   ar
    10    11     1    1
    11     1     2   ar
    12     2     3   ar
    13     3     4   ar
    14     4    21    1
    15    21    22    1
    16    22    23    1
    17    23    24   ar
    18    24    25   ar
    19    25    26   ar
    20    26    27   ar
    21    27    28   ar
    22     4     5   ar
    23     5     6   ar
    24     6     7    2
    25    11    12   ar
    26    12    13   ar
    27    19    20    1
    28    20    16    1
    29    13     8   ar
    30     6     1   ar
    31    28    23   ar
@<TRIPOS>MOLECULE
*****
 28 31 0 0 0
SMALL
GASTEIGER

@<TRIPOS>ATOM
      1 N         140.3776  143.6701  161.6422 N.ar    1  UNL1       -0.2729
      2 C         141.3401  142.6245  162.1219 C.ar    1  UNL1        0.0860
      3 C         141.3627  142.2338  163.5701 C.ar    1  UNL1        0.0561
      4 C         140.4229  142.8889  164.5383 C.ar    1  UNL1        0.1453
      5 C         139.4604  143.9346  164.0585 C.ar    1  UNL1        0.0980
      6 C         139.4378  144.3252  162.6104 C.ar    1  UNL1        0.2679
      7 O         138.4753  145.3709  162.1306 O.2     1  UNL1       -0.2665
      8 C         140.3098  144.8421  157.2980 C.ar    1  UNL1        0.1385
      9 C         141.1407  145.6229  158.2725 C.ar    1  UNL1        0.0384
     10 C         141.1633  145.2323  159.7206 C.ar    1  UNL1        0.0207
     11 C         140.3550  144.0608  160.1941 C.ar    1  UNL1        0.0671
     12 C         139.5241  143.2799  159.2195 C.ar    1  UNL1        0.0207
     13 C         139.5015  143.6705  157.7715 C.ar    1  UNL1        0.0384
     14 O         140.2871  145.2327  155.8499 O.3     1  UNL1       -0.4777
     15 C         139.8715  149.7732  153.1869 C.3     1  UNL1        0.0897
     16 N         139.6953  148.7100  154.2302 N.3     1  UNL1       -0.2684
     17 C         138.8440  148.8147  155.4608 C.3     1  UNL1        0.0760
     18 C         138.9621  147.5249  156.2173 C.3     1  UNL1        0.0623
     19 C         139.8864  146.6229  155.4543 C.3     1  UNL1        0.1831
     20 C         140.3395  147.3554  154.2262 C.3     1  UNL1        0.1162
     21 O         140.4455  142.4983  165.9864 O.3     1  UNL1       -0.4704
     22 C         140.9588  141.1483  166.3911 C.3     1  UNL1        0.2320
     23 C         140.1437  139.9208  166.1099 C.ar    1  UNL1        0.0212
     24 C         140.6547  138.8839  165.1540 C.ar    1  UNL1       -0.0007
     25 C         139.8397  137.6565  164.8728 C.ar    1  UNL1       -0.0002
     26 C         138.5136  137.4659  165.5476 C.ar    1  UNL1       -0.0000
     27 C         138.0026  138.5028  166.5035 C.ar    1  UNL1       -0.0002
     28 C         138.8177  139.7302  166.7846 C.ar    1  UNL1       -0.0007
@<TRIPOS>BOND
     1    15    16    1
     2    16    17    1
     3    17    18    1
     4    18    19    1
     5    19    14    1
     6    14     8    1
     7     8     9   ar
     8     9    10   ar
     9    10    11   ar
    10    11     1    1
    11     1     2   ar
    12     2     3   ar
    13     3     4   ar
    14     4    21    1
    15    21    22    1
    16    22    23    1
    17    23    24   ar
    18    24    25   ar
    19    25    26   ar
    20    26    27   ar
    21    27    28   ar
    22     4     5   ar
    23     5     6   ar
    24     6     7    2
    25    11    12   ar
    26    12    13   ar
    27    19    20    1
    28    20    16    1
    29    13     8   ar
    30     6     1   ar
    31    28    23   ar
@<TRIPOS>MOLECULE
*****
 28 31 0 0 0
SMALL
GASTEIGER

@<TRIPOS>ATOM
      1 N         140.7831  138.4674  160.9599 N.ar    1  UNL1       -0.2729
      2 C         139.8433  138.6481  159.8049 C.ar    1  UNL1        0.0860
      3 C         140.3205  138.4024  158.4041 C.ar    1  UNL1        0.0561
      4 C         141.7375  137.9761  158.1585 C.ar    1  UNL1        0.1453
      5 C         142.6773  137.7954  159.3137 C.ar    1  UNL1        0.0980
      6 C         142.2001  138.0411  160.7143 C.ar    1  UNL1        0.2679
      7 O         143.1399  137.8604  161.8694 O.2     1  UNL1       -0.2665
      8 C         139.3515  139.2043  165.1620 C.ar    1  UNL1        0.1385
      9 C         139.5367  137.8001  164.6682 C.ar    1  UNL1        0.0384
     10 C         140.0139  137.5545  163.2675 C.ar    1  UNL1        0.0207
     11 C         140.3059  138.7131  162.3606 C.ar    1  UNL1        0.0671
     12 C         140.1206  140.1173  162.8544 C.ar    1  UNL1        0.0207
     13 C         139.6434  140.3629  164.2551 C.ar    1  UNL1        0.0384
     14 O         138.8743  139.4500  166.5627 O.3     1  UNL1       -0.4777
     15 C         140.9097  141.0673  171.1586 C.3     1  UNL1        0.0897
     16 N         140.7870  140.5907  169.7416 N.3     1  UNL1       -0.2684
     17 C         141.9234  140.3264  168.7987 C.3     1  UNL1        0.0760
     18 C         141.3451  139.8670  167.4932 C.3     1  UNL1        0.0623
     19 C         139.8514  139.8472  167.6291 C.3     1  UNL1        0.1831
     20 C         139.5065  140.2945  169.0188 C.3     1  UNL1        0.1162
     21 O         142.2148  137.7304  156.7579 O.3     1  UNL1       -0.4704
     22 C         143.2663  136.6936  156.4949 C.3     1  UNL1        0.2320
     23 C         142.8751  135.2560  156.3207 C.ar    1  UNL1        0.0212
     24 C         143.5651  134.1890  157.1178 C.ar    1  UNL1       -0.0007
     25 C         143.1740  132.7515  156.9436 C.ar    1  UNL1       -0.0002
     26 C         142.0927  132.3809  155.9722 C.ar    1  UNL1       -0.0000
     27 C         141.4027  133.4478  155.1750 C.ar    1  UNL1       -0.0002
     28 C         141.7939  134.8853  155.3493 C.ar    1  UNL1       -0.0007
@<TRIPOS>BOND
     1    15    16    1
     2    16    17    1
     3    17    18    1
     4    18    19    1
     5    19    14    1
     6    14     8    1
     7     8     9   ar
     8     9    10   ar
     9    10    11   ar
    10    11     1    1
    11     1     2   ar
    12     2     3   ar
    13     3     4   ar
    14     4    21    1
    15    21    22    1
    16    22    23    1
    17    23    24   ar
    18    24    25   ar
    19    25    26   ar
    20    26    27   ar
    21    27    28   ar
    22     4     5   ar
    23     5     6   ar
    24     6     7    2
    25    11    12   ar
    26    12    13   ar
    27    19    20    1
    28    20    16    1
    29    13     8   ar
    30     6     1   ar
    31    28    23   ar
@<TRIPOS>MOLECULE
*****
 28 31 0 0 0
SMALL
GASTEIGER

@<TRIPOS>ATOM
      1 N         140.3944  138.3189  158.2774 N.ar    1  UNL1       -0.2729
      2 C         139.7254  137.6710  157.1016 C.ar    1  UNL1        0.0860
      3 C         140.5410  136.9031  156.1039 C.ar    1  UNL1        0.0561
      4 C         142.0255  136.7832  156.2821 C.ar    1  UNL1        0.1453
      5 C         142.6945  137.4312  157.4580 C.ar    1  UNL1        0.0980
      6 C         141.8789  138.1990  158.4556 C.ar    1  UNL1        0.2679
      7 O         142.5479  138.8470  159.6315 O.2     1  UNL1       -0.2665
      8 C         137.9478  140.6225  161.2704 C.ar    1  UNL1        0.1385
      9 C         138.4041  141.2861  160.0050 C.ar    1  UNL1        0.0384
     10 C         139.2196  140.5183  159.0073 C.ar    1  UNL1        0.0207
     11 C         139.5788  139.0868  159.2751 C.ar    1  UNL1        0.0671
     12 C         139.1226  138.4231  160.5405 C.ar    1  UNL1        0.0207
     13 C         138.3071  139.1909  161.5382 C.ar    1  UNL1        0.0384
     14 O         137.1323  141.3903  162.2681 O.3     1  UNL1       -0.4777
     15 C         140.1746  143.0833  166.2378 C.3     1  UNL1        0.0897
     16 N         139.2100  143.0603  165.0893 N.3     1  UNL1       -0.2684
     17 C         138.5039  144.2488  164.5070 C.3     1  UNL1        0.0760
     18 C         137.6396  143.7678  163.3793 C.3     1  UNL1        0.0623
     19 C         137.8116  142.2821  163.2646 C.3     1  UNL1        0.1831
     20 C         138.7821  141.8449  164.3215 C.3     1  UNL1        0.1162
     21 O         142.8411  136.0154  155.2844 O.3     1  UNL1       -0.4704
     22 C         142.6080  134.5455  155.0976 C.3     1  UNL1        0.2320
     23 C         143.4548  133.5520  155.8365 C.ar    1  UNL1        0.0212
     24 C         143.8066  132.2425  155.1951 C.ar    1  UNL1       -0.0007
     25 C         144.6533  131.2490  155.9340 C.ar    1  UNL1       -0.0002
     26 C         145.1483  131.5651  157.3143 C.ar    1  UNL1       -0.0000
     27 C         144.7965  132.8746  157.9557 C.ar    1  UNL1       -0.0002
     28 C         143.9497  133.8680  157.2168 C.ar    1  UNL1       -0.0007
@<TRIPOS>BOND
     1    15    16    1
     2    16    17    1
     3    17    18    1
     4    18    19    1
     5    19    14    1
     6    14     8    1
     7     8     9   ar
     8     9    10   ar
     9    10    11   ar
    10    11     1    1
    11     1     2   ar
    12     2     3   ar
    13     3     4   ar
    14     4    21    1
    15    21    22    1
    16    22    23    1
    17    23    24   ar
    18    24    25   ar
    19    25    26   ar
    20    26    27   ar
    21    27    28   ar
    22     4     5   ar
    23     5     6   ar
    24     6     7    2
    25    11    12   ar
    26    12    13   ar
    27    19    20    1
    28    20    16    1
    29    13     8   ar
    30     6     1   ar
    31    28    23   ar
@<TRIPOS>MOLECULE
*****
 28 31 0 0 0
SMALL
GASTEIGER

@<TRIPOS>ATOM
      1 N         140.2037  138.8441  162.2849 N.ar    1  UNL1       -0.2729
      2 C         139.3118  140.0319  162.4937 C.ar    1  UNL1        0.0860
      3 C         138.5251  140.1650  163.7639 C.ar    1  UNL1        0.0561
      4 C         138.6304  139.1103  164.8253 C.ar    1  UNL1        0.1453
      5 C         139.5224  137.9225  164.6164 C.ar    1  UNL1        0.0980
      6 C         140.3090  137.7894  163.3462 C.ar    1  UNL1        0.2679
      7 O         141.2010  136.6016  163.1374 O.2     1  UNL1       -0.2665
      8 C         142.5637  138.4447  158.4742 C.ar    1  UNL1        0.1385
      9 C         141.0648  138.3999  158.4363 C.ar    1  UNL1        0.0384
     10 C         140.2782  138.5330  159.7065 C.ar    1  UNL1        0.0207
     11 C         140.9904  138.7110  161.0146 C.ar    1  UNL1        0.0671
     12 C         142.4892  138.7559  161.0525 C.ar    1  UNL1        0.0207
     13 C         143.2759  138.6227  159.7823 C.ar    1  UNL1        0.0384
     14 O         143.3504  138.3116  157.2040 O.3     1  UNL1       -0.4777
     15 C         141.9024  135.4781  152.9903 C.3     1  UNL1        0.0897
     16 N         142.4282  135.8556  154.3434 N.3     1  UNL1       -0.2684
     17 C         142.9696  134.9098  155.3742 C.3     1  UNL1        0.0760
     18 C         143.3809  135.7148  156.5712 C.3     1  UNL1        0.0623
     19 C         143.0938  137.1580  156.2803 C.3     1  UNL1        0.1831
     20 C         142.5050  137.2450  154.9034 C.3     1  UNL1        0.1162
     21 O         137.8437  139.2434  166.0955 O.3     1  UNL1       -0.4704
     22 C         138.5296  139.0961  167.4213 C.3     1  UNL1        0.2320
     23 C         139.2288  140.2709  168.0386 C.ar    1  UNL1        0.0212
     24 C         139.9602  141.2501  167.1691 C.ar    1  UNL1       -0.0007
     25 C         140.6594  142.4248  167.7865 C.ar    1  UNL1       -0.0002
     26 C         140.6272  142.6203  169.2733 C.ar    1  UNL1       -0.0000
     27 C         139.8958  141.6410  170.1429 C.ar    1  UNL1       -0.0002
     28 C         139.1966  140.4663  169.5255 C.ar    1  UNL1       -0.0007
@<TRIPOS>BOND
     1    15    16    1
     2    16    17    1
     3    17    18    1
     4    18    19    1
     5    19    14    1
     6    14     8    1
     7     8     9   ar
     8     9    10   ar
     9    10    11   ar
    10    11     1    1
    11     1     2   ar
    12     2     3   ar
    13     3     4   ar
    14     4    21    1
    15    21    22    1
    16    22    23    1
    17    23    24   ar
    18    24    25   ar
    19    25    26   ar
    20    26    27   ar
    21    27    28   ar
    22     4     5   ar
    23     5     6   ar
    24     6     7    2
    25    11    12   ar
    26    12    13   ar
    27    19    20    1
    28    20    16    1
    29    13     8   ar
    30     6     1   ar
    31    28    23   ar
