@<TRIPOS>MOLECULE
*****
 29 32 0 0 0
SMALL
GASTEIGER

@<TRIPOS>ATOM
      1 C         139.1922  138.4651  163.2001 C.3     1  UNL1        0.0559
      2 C         139.3728  139.5052  164.2657 C.3     1  UNL1        0.2097
      3 N         139.5404  139.2441  165.7332 N.pl3   1  UNL1       -0.2183
      4 C         139.6888  140.5665  166.4254 C.2     1  UNL1        0.3162
      5 N         139.6130  141.6450  165.3856 N.2     1  UNL1       -0.0615
      6 C         139.4177  140.9891  164.0508 C.3     1  UNL1        0.2514
      7 H         139.5510  138.3599  166.1662 H       1  UNL1        0.2923
      8 C         139.2233  140.6275  162.6081 C.ar    1  UNL1        0.0297
      9 C         137.8423  140.3853  162.0751 C.ar    1  UNL1        0.0025
     10 C         137.6479  140.0237  160.6323 C.ar    1  UNL1        0.0295
     11 C         138.8345  139.9044  159.7226 C.ar    1  UNL1        0.1401
     12 F         138.6401  139.5428  158.2799 F       1  UNL1       -0.2042
     13 C         140.2156  140.1466  160.2556 C.ar    1  UNL1        0.0295
     14 C         140.4100  140.5081  161.6983 C.ar    1  UNL1        0.0025
     15 C         139.4219  142.3973  163.5343 C.ar    1  UNL1        0.0488
     16 C         140.7085  143.1650  163.4597 C.ar    1  UNL1        0.0057
     17 C         140.7127  144.5732  162.9432 C.ar    1  UNL1        0.0495
     18 C         139.4304  145.2138  162.5013 C.ar    1  UNL1        0.2223
     19 F         139.4347  146.6222  161.9848 F       1  UNL1       -0.1832
     20 N         138.1439  144.4463  162.5760 N.ar    1  UNL1       -0.2166
     21 C         138.1396  143.0379  163.0925 C.ar    1  UNL1        0.1014
     22 C         139.8795  140.7741  167.8987 C.ar    1  UNL1        0.0854
     23 C         139.0145  140.0375  168.8780 C.ar    1  UNL1        0.0281
     24 C         139.2053  140.2451  170.3513 C.ar    1  UNL1        0.0999
     25 N         140.2610  141.1892  170.8452 N.ar    1  UNL1       -0.2335
     26 C         141.1260  141.9258  169.8658 C.ar    1  UNL1        0.1494
     27 C         140.9352  141.7183  168.3926 C.ar    1  UNL1        0.0370
     28 C         142.1817  142.8700  170.3597 C.1     1  UNL1        0.1198
     29 N         143.2375  143.8142  170.8536 N.1     1  UNL1       -0.1893
@<TRIPOS>BOND
     1     2     1    1
     2     2     3    1
     3     3     4    1
     4     4    22    1
     5    22    23   ar
     6    23    24   ar
     7    24    25   ar
     8    25    26   ar
     9    26    28    1
    10    28    29    3
    11    26    27   ar
    12     4     5    2
    13     5     6    1
    14     6     8    1
    15     8     9   ar
    16     9    10   ar
    17    10    11   ar
    18    11    12    1
    19    11    13   ar
    20    13    14   ar
    21     6    15    1
    22    15    16   ar
    23    16    17   ar
    24    17    18   ar
    25    18    19    1
    26    18    20   ar
    27    20    21   ar
    28     6     2    1
    29    14     8   ar
    30    21    15   ar
    31    27    22   ar
    32     3     7    1
@<TRIPOS>MOLECULE
*****
 29 32 0 0 0
SMALL
GASTEIGER

@<TRIPOS>ATOM
      1 C         139.1871  138.4369  163.3683 C.3     1  UNL1        0.0559
      2 C         139.3853  139.4860  164.4219 C.3     1  UNL1        0.2097
      3 N         139.5711  139.2376  165.8894 N.pl3   1  UNL1       -0.2183
      4 C         139.7333  140.5658  166.5675 C.2     1  UNL1        0.3162
      5 N         139.6477  141.6350  165.5189 N.2     1  UNL1       -0.0615
      6 C         139.4326  140.9677  164.1929 C.3     1  UNL1        0.2514
      7 H         139.5844  138.3575  166.3303 H       1  UNL1        0.2923
      8 C         139.2181  140.5937  162.7562 C.ar    1  UNL1        0.0297
      9 C         140.3958  140.4032  161.8470 C.ar    1  UNL1        0.0025
     10 C         140.1814  140.0292  160.4102 C.ar    1  UNL1        0.0295
     11 C         138.7893  139.8458  159.8827 C.ar    1  UNL1        0.1401
     12 F         138.5748  139.4718  158.4460 F       1  UNL1       -0.2042
     13 C         137.6114  140.0364  160.7920 C.ar    1  UNL1        0.0295
     14 C         137.8259  140.4103  162.2287 C.ar    1  UNL1        0.0025
     15 C         139.4351  142.3712  163.6635 C.ar    1  UNL1        0.0488
     16 C         138.1389  143.0981  163.4595 C.ar    1  UNL1        0.0057
     17 C         138.1414  144.5015  162.9301 C.ar    1  UNL1        0.0495
     18 C         139.4400  145.1781  162.6048 C.ar    1  UNL1        0.2223
     19 F         139.4423  146.5817  162.0754 F       1  UNL1       -0.1832
     20 N         140.7360  144.4513  162.8088 N.ar    1  UNL1       -0.2166
     21 C         140.7337  143.0478  163.3382 C.ar    1  UNL1        0.1014
     22 C         139.9440  140.7861  168.0362 C.ar    1  UNL1        0.0854
     23 C         139.0936  140.0566  169.0336 C.ar    1  UNL1        0.0281
     24 C         139.3044  140.2769  170.5022 C.ar    1  UNL1        0.0999
     25 N         140.3655  141.2266  170.9735 N.ar    1  UNL1       -0.2335
     26 C         141.2158  141.9560  169.9762 C.ar    1  UNL1        0.1494
     27 C         141.0051  141.7358  168.5075 C.ar    1  UNL1        0.0370
     28 C         142.2769  142.9057  170.4475 C.1     1  UNL1        0.1198
     29 N         143.3380  143.8554  170.9188 N.1     1  UNL1       -0.1893
@<TRIPOS>BOND
     1     2     1    1
     2     2     3    1
     3     3     4    1
     4     4    22    1
     5    22    23   ar
     6    23    24   ar
     7    24    25   ar
     8    25    26   ar
     9    26    28    1
    10    28    29    3
    11    26    27   ar
    12     4     5    2
    13     5     6    1
    14     6     8    1
    15     8     9   ar
    16     9    10   ar
    17    10    11   ar
    18    11    12    1
    19    11    13   ar
    20    13    14   ar
    21     6    15    1
    22    15    16   ar
    23    16    17   ar
    24    17    18   ar
    25    18    19    1
    26    18    20   ar
    27    20    21   ar
    28     6     2    1
    29    14     8   ar
    30    21    15   ar
    31    27    22   ar
    32     3     7    1
@<TRIPOS>MOLECULE
*****
 29 32 0 0 0
SMALL
GASTEIGER

@<TRIPOS>ATOM
      1 C         143.4241  139.7575  162.1571 C.3     1  UNL1        0.0559
      2 C         142.3061  140.2110  163.0483 C.3     1  UNL1        0.2097
      3 N         141.7330  139.4446  164.2033 N.pl3   1  UNL1       -0.2183
      4 C         140.6375  140.2704  164.8098 C.2     1  UNL1        0.3162
      5 N         140.5335  141.5473  164.0296 N.2     1  UNL1       -0.0615
      6 C         141.5647  141.5106  162.9409 C.3     1  UNL1        0.2514
      7 H         142.0247  138.5555  164.5096 H       1  UNL1        0.2923
      8 C         142.4810  141.7562  161.7790 C.ar    1  UNL1        0.0297
      9 C         142.0496  141.3828  160.3917 C.ar    1  UNL1        0.0025
     10 C         142.9659  141.6285  159.2297 C.ar    1  UNL1        0.0295
     11 C         144.3134  142.2475  159.4550 C.ar    1  UNL1        0.1401
     12 F         145.2297  142.4931  158.2931 F       1  UNL1       -0.2042
     13 C         144.7448  142.6209  160.8423 C.ar    1  UNL1        0.0295
     14 C         143.8286  142.3752  162.0043 C.ar    1  UNL1        0.0025
     15 C         141.0149  142.8615  162.5906 C.ar    1  UNL1        0.0488
     16 C         141.6459  144.0983  163.1582 C.ar    1  UNL1        0.0057
     17 C         141.0962  145.4492  162.8079 C.ar    1  UNL1        0.0495
     18 C         139.9153  145.5633  161.8899 C.ar    1  UNL1        0.2223
     19 F         139.3656  146.9143  161.5396 F       1  UNL1       -0.1832
     20 N         139.2843  144.3266  161.3223 N.ar    1  UNL1       -0.2166
     21 C         139.8341  142.9756  161.6726 C.ar    1  UNL1        0.1014
     22 C         139.7941  139.8868  165.9895 C.ar    1  UNL1        0.0854
     23 C         138.5529  139.0686  165.7897 C.ar    1  UNL1        0.0281
     24 C         137.7096  138.6850  166.9693 C.ar    1  UNL1        0.0999
     25 N         138.1075  139.1195  168.3488 N.ar    1  UNL1       -0.2335
     26 C         139.3487  139.9377  168.5486 C.ar    1  UNL1        0.1494
     27 C         140.1920  140.3214  167.3689 C.ar    1  UNL1        0.0370
     28 C         139.7465  140.3723  169.9280 C.1     1  UNL1        0.1198
     29 N         140.1444  140.8069  171.3075 N.1     1  UNL1       -0.1893
@<TRIPOS>BOND
     1     2     1    1
     2     2     3    1
     3     3     4    1
     4     4    22    1
     5    22    23   ar
     6    23    24   ar
     7    24    25   ar
     8    25    26   ar
     9    26    28    1
    10    28    29    3
    11    26    27   ar
    12     4     5    2
    13     5     6    1
    14     6     8    1
    15     8     9   ar
    16     9    10   ar
    17    10    11   ar
    18    11    12    1
    19    11    13   ar
    20    13    14   ar
    21     6    15    1
    22    15    16   ar
    23    16    17   ar
    24    17    18   ar
    25    18    19    1
    26    18    20   ar
    27    20    21   ar
    28     6     2    1
    29    14     8   ar
    30    21    15   ar
    31    27    22   ar
    32     3     7    1
@<TRIPOS>MOLECULE
*****
 29 32 0 0 0
SMALL
GASTEIGER

@<TRIPOS>ATOM
      1 C         140.8009  137.5944  164.7264 C.3     1  UNL1        0.0559
      2 C         140.6712  138.2025  163.3614 C.3     1  UNL1        0.2097
      3 N         141.1719  137.6062  162.0793 N.pl3   1  UNL1       -0.2183
      4 C         140.8282  138.5489  160.9643 C.2     1  UNL1        0.3162
      5 N         140.1151  139.7278  161.5572 N.2     1  UNL1       -0.0615
      6 C         140.0181  139.5138  163.0387 C.3     1  UNL1        0.2514
      7 H         141.6433  136.7469  161.9860 H       1  UNL1        0.2923
      8 C         139.7739  139.5766  164.5173 C.ar    1  UNL1        0.0297
      9 C         138.5118  139.0069  165.0939 C.ar    1  UNL1        0.0025
     10 C         138.2675  139.0696  166.5726 C.ar    1  UNL1        0.0295
     11 C         139.2854  139.7021  167.4746 C.ar    1  UNL1        0.1401
     12 F         139.0412  139.7649  168.9533 F       1  UNL1       -0.2042
     13 C         140.5477  140.2719  166.8981 C.ar    1  UNL1        0.0295
     14 C         140.7919  140.2091  165.4194 C.ar    1  UNL1        0.0025
     15 C         139.3140  140.8382  163.0252 C.ar    1  UNL1        0.0488
     16 C         140.0989  142.1066  163.1837 C.ar    1  UNL1        0.0057
     17 C         139.3947  143.4309  163.1703 C.ar    1  UNL1        0.0495
     18 C         137.9057  143.4869  162.9982 C.ar    1  UNL1        0.2223
     19 F         137.2015  144.8114  162.9847 F       1  UNL1       -0.1832
     20 N         137.1208  142.2186  162.8397 N.ar    1  UNL1       -0.2166
     21 C         137.8249  140.8941  162.8531 C.ar    1  UNL1        0.1014
     22 C         141.1424  138.3479  159.5113 C.ar    1  UNL1        0.0854
     23 C         142.5597  138.4458  159.0300 C.ar    1  UNL1        0.0281
     24 C         142.8738  138.2447  157.5771 C.ar    1  UNL1        0.0999
     25 N         141.7707  137.9458  156.6056 N.ar    1  UNL1       -0.2335
     26 C         140.3535  137.8479  157.0870 C.ar    1  UNL1        0.1494
     27 C         140.0393  138.0490  158.5398 C.ar    1  UNL1        0.0370
     28 C         139.2504  137.5490  156.1154 C.1     1  UNL1        0.1198
     29 N         138.1473  137.2501  155.1439 N.1     1  UNL1       -0.1893
@<TRIPOS>BOND
     1     2     1    1
     2     2     3    1
     3     3     4    1
     4     4    22    1
     5    22    23   ar
     6    23    24   ar
     7    24    25   ar
     8    25    26   ar
     9    26    28    1
    10    28    29    3
    11    26    27   ar
    12     4     5    2
    13     5     6    1
    14     6     8    1
    15     8     9   ar
    16     9    10   ar
    17    10    11   ar
    18    11    12    1
    19    11    13   ar
    20    13    14   ar
    21     6    15    1
    22    15    16   ar
    23    16    17   ar
    24    17    18   ar
    25    18    19    1
    26    18    20   ar
    27    20    21   ar
    28     6     2    1
    29    14     8   ar
    30    21    15   ar
    31    27    22   ar
    32     3     7    1
@<TRIPOS>MOLECULE
*****
 29 32 0 0 0
SMALL
GASTEIGER

@<TRIPOS>ATOM
      1 C         144.4895  139.9459  162.9707 C.3     1  UNL1        0.0559
      2 C         143.6233  140.4776  164.0739 C.3     1  UNL1        0.2097
      3 N         143.5499  139.9422  165.4731 N.pl3   1  UNL1       -0.2183
      4 C         142.5597  140.7718  166.2356 C.2     1  UNL1        0.3162
      5 N         142.0211  141.8199  165.3075 N.2     1  UNL1       -0.0615
      6 C         142.6784  141.6382  163.9715 C.3     1  UNL1        0.2514
      7 H         144.0618  139.1801  165.8287 H       1  UNL1        0.2923
      8 C         143.1593  141.7017  162.5521 C.ar    1  UNL1        0.0297
      9 C         144.3499  142.5437  162.2006 C.ar    1  UNL1        0.0025
     10 C         144.8308  142.6073  160.7812 C.ar    1  UNL1        0.0295
     11 C         144.1211  141.8290  159.7133 C.ar    1  UNL1        0.1401
     12 F         144.6020  141.8926  158.2939 F       1  UNL1       -0.2042
     13 C         142.9304  140.9869  160.0648 C.ar    1  UNL1        0.0295
     14 C         142.4496  140.9233  161.4842 C.ar    1  UNL1        0.0025
     15 C         141.8341  142.8119  163.5724 C.ar    1  UNL1        0.0488
     16 C         142.3661  144.2058  163.7277 C.ar    1  UNL1        0.0057
     17 C         141.5217  145.3796  163.3286 C.ar    1  UNL1        0.0495
     18 C         140.1455  145.1595  162.7741 C.ar    1  UNL1        0.2223
     19 F         139.3011  146.3334  162.3750 F       1  UNL1       -0.1832
     20 N         139.6135  143.7657  162.6189 N.ar    1  UNL1       -0.2166
     21 C         140.4578  142.5918  163.0180 C.ar    1  UNL1        0.1014
     22 C         142.1755  140.5858  167.6736 C.ar    1  UNL1        0.0854
     23 C         142.6569  139.3827  168.4290 C.ar    1  UNL1        0.0281
     24 C         142.2727  139.1968  169.8669 C.ar    1  UNL1        0.0999
     25 N         141.4071  140.2140  170.5495 N.ar    1  UNL1       -0.2335
     26 C         140.9257  141.4172  169.7942 C.ar    1  UNL1        0.1494
     27 C         141.3099  141.6031  168.3562 C.ar    1  UNL1        0.0370
     28 C         140.0601  142.4344  170.4768 C.1     1  UNL1        0.1198
     29 N         139.1946  143.4517  171.1594 N.1     1  UNL1       -0.1893
@<TRIPOS>BOND
     1     2     1    1
     2     2     3    1
     3     3     4    1
     4     4    22    1
     5    22    23   ar
     6    23    24   ar
     7    24    25   ar
     8    25    26   ar
     9    26    28    1
    10    28    29    3
    11    26    27   ar
    12     4     5    2
    13     5     6    1
    14     6     8    1
    15     8     9   ar
    16     9    10   ar
    17    10    11   ar
    18    11    12    1
    19    11    13   ar
    20    13    14   ar
    21     6    15    1
    22    15    16   ar
    23    16    17   ar
    24    17    18   ar
    25    18    19    1
    26    18    20   ar
    27    20    21   ar
    28     6     2    1
    29    14     8   ar
    30    21    15   ar
    31    27    22   ar
    32     3     7    1
@<TRIPOS>MOLECULE
*****
 29 32 0 0 0
SMALL
GASTEIGER

@<TRIPOS>ATOM
      1 C         141.5756  137.5400  164.7077 C.3     1  UNL1        0.0559
      2 C         142.0549  138.3065  163.5107 C.3     1  UNL1        0.2097
      3 N         142.1574  137.7801  162.1098 N.pl3   1  UNL1       -0.2183
      4 C         142.6818  138.8822  161.2377 C.2     1  UNL1        0.3162
      5 N         142.9034  140.0897  162.0996 N.2     1  UNL1       -0.0615
      6 C         142.5160  139.7339  163.5044 C.3     1  UNL1        0.2514
      7 H         141.9218  136.8710  161.8146 H       1  UNL1        0.2923
      8 C         142.2117  139.6738  164.9720 C.ar    1  UNL1        0.0297
      9 C         143.2434  139.1589  165.9314 C.ar    1  UNL1        0.0025
     10 C         142.9391  139.0988  167.3990 C.ar    1  UNL1        0.0295
     11 C         141.6032  139.5537  167.9071 C.ar    1  UNL1        0.1401
     12 F         141.2988  139.4936  169.3747 F       1  UNL1       -0.2042
     13 C         140.5713  140.0686  166.9477 C.ar    1  UNL1        0.0295
     14 C         140.8757  140.1287  165.4801 C.ar    1  UNL1        0.0025
     15 C         142.9134  141.1487  163.8049 C.ar    1  UNL1        0.0488
     16 C         144.2603  141.4396  164.3978 C.ar    1  UNL1        0.0057
     17 C         144.6577  142.8544  164.6983 C.ar    1  UNL1        0.0495
     18 C         143.7083  143.9783  164.4060 C.ar    1  UNL1        0.2223
     19 F         144.1058  145.3932  164.7066 F       1  UNL1       -0.1832
     20 N         142.3616  143.6875  163.8132 N.ar    1  UNL1       -0.2166
     21 C         141.9641  142.2726  163.5126 C.ar    1  UNL1        0.1014
     22 C         142.9393  138.7925  159.7627 C.ar    1  UNL1        0.0854
     23 C         143.5284  139.9623  159.0317 C.ar    1  UNL1        0.0281
     24 C         143.7859  139.8726  157.5567 C.ar    1  UNL1        0.0999
     25 N         143.4543  138.6130  156.8128 N.ar    1  UNL1       -0.2335
     26 C         142.8653  137.4431  157.5438 C.ar    1  UNL1        0.1494
     27 C         142.6078  137.5329  159.0187 C.ar    1  UNL1        0.0370
     28 C         142.5338  136.1835  156.7998 C.1     1  UNL1        0.1198
     29 N         142.2022  134.9239  156.0558 N.1     1  UNL1       -0.1893
@<TRIPOS>BOND
     1     2     1    1
     2     2     3    1
     3     3     4    1
     4     4    22    1
     5    22    23   ar
     6    23    24   ar
     7    24    25   ar
     8    25    26   ar
     9    26    28    1
    10    28    29    3
    11    26    27   ar
    12     4     5    2
    13     5     6    1
    14     6     8    1
    15     8     9   ar
    16     9    10   ar
    17    10    11   ar
    18    11    12    1
    19    11    13   ar
    20    13    14   ar
    21     6    15    1
    22    15    16   ar
    23    16    17   ar
    24    17    18   ar
    25    18    19    1
    26    18    20   ar
    27    20    21   ar
    28     6     2    1
    29    14     8   ar
    30    21    15   ar
    31    27    22   ar
    32     3     7    1
@<TRIPOS>MOLECULE
*****
 29 32 0 0 0
SMALL
GASTEIGER

@<TRIPOS>ATOM
      1 C         144.7010  140.7191  162.8774 C.3     1  UNL1        0.0559
      2 C         143.6453  140.6027  163.9366 C.3     1  UNL1        0.2097
      3 N         143.8092  140.9494  165.3867 N.pl3   1  UNL1       -0.2183
      4 C         142.5054  140.6801  166.0780 C.2     1  UNL1        0.3162
      5 N         141.5358  140.1668  165.0550 N.2     1  UNL1       -0.0615
      6 C         142.2402  140.1190  163.7316 C.3     1  UNL1        0.2514
      7 H         144.6285  141.2934  165.8104 H       1  UNL1        0.2923
      8 C         142.6697  139.9632  162.3029 C.ar    1  UNL1        0.0297
      9 C         142.5247  141.1099  161.3469 C.ar    1  UNL1        0.0025
     10 C         142.9542  140.9542  159.9181 C.ar    1  UNL1        0.0295
     11 C         143.5287  139.6519  159.4454 C.ar    1  UNL1        0.1401
     12 F         143.9583  139.4961  158.0167 F       1  UNL1       -0.2042
     13 C         143.6739  138.5050  160.4014 C.ar    1  UNL1        0.0295
     14 C         143.2443  138.6608  161.8302 C.ar    1  UNL1        0.0025
     15 C         140.9250  139.6027  163.2279 C.ar    1  UNL1        0.0488
     16 C         140.5856  138.1486  163.3709 C.ar    1  UNL1        0.0057
     17 C         139.2704  137.6324  162.8672 C.ar    1  UNL1        0.0495
     18 C         138.2946  138.5702  162.2205 C.ar    1  UNL1        0.2223
     19 F         136.9794  138.0539  161.7168 F       1  UNL1       -0.1832
     20 N         138.6340  140.0242  162.0775 N.ar    1  UNL1       -0.2166
     21 C         139.9492  140.5406  162.5812 C.ar    1  UNL1        0.1014
     22 C         142.2213  140.8875  167.5362 C.ar    1  UNL1        0.0854
     23 C         142.5911  139.8272  168.5306 C.ar    1  UNL1        0.0281
     24 C         142.3069  140.0347  169.9887 C.ar    1  UNL1        0.0999
     25 N         141.6529  141.3025  170.4524 N.ar    1  UNL1       -0.2335
     26 C         141.2832  142.3628  169.4580 C.ar    1  UNL1        0.1494
     27 C         141.5673  142.1553  167.9998 C.ar    1  UNL1        0.0370
     28 C         140.6292  143.6307  169.9216 C.1     1  UNL1        0.1198
     29 N         139.9753  144.8985  170.3853 N.1     1  UNL1       -0.1893
@<TRIPOS>BOND
     1     2     1    1
     2     2     3    1
     3     3     4    1
     4     4    22    1
     5    22    23   ar
     6    23    24   ar
     7    24    25   ar
     8    25    26   ar
     9    26    28    1
    10    28    29    3
    11    26    27   ar
    12     4     5    2
    13     5     6    1
    14     6     8    1
    15     8     9   ar
    16     9    10   ar
    17    10    11   ar
    18    11    12    1
    19    11    13   ar
    20    13    14   ar
    21     6    15    1
    22    15    16   ar
    23    16    17   ar
    24    17    18   ar
    25    18    19    1
    26    18    20   ar
    27    20    21   ar
    28     6     2    1
    29    14     8   ar
    30    21    15   ar
    31    27    22   ar
    32     3     7    1
@<TRIPOS>MOLECULE
*****
 29 32 0 0 0
SMALL
GASTEIGER

@<TRIPOS>ATOM
      1 C         142.4779  144.7089  163.5137 C.3     1  UNL1        0.0559
      2 C         141.8583  143.5482  164.2341 C.3     1  UNL1        0.2097
      3 N         142.1641  143.1167  165.6377 N.pl3   1  UNL1       -0.2183
      4 C         141.3189  141.9171  165.9485 C.2     1  UNL1        0.3162
      5 N         140.4907  141.6071  164.7368 N.2     1  UNL1       -0.0615
      6 C         140.8241  142.6152  163.6773 C.3     1  UNL1        0.2514
      7 H         142.8067  143.5456  166.2479 H       1  UNL1        0.2923
      8 C         140.9466  143.4654  162.4476 C.ar    1  UNL1        0.0297
      9 C         140.0795  144.6785  162.2851 C.ar    1  UNL1        0.0025
     10 C         140.2020  145.5288  161.0554 C.ar    1  UNL1        0.0295
     11 C         141.1916  145.1659  159.9883 C.ar    1  UNL1        0.1401
     12 F         141.3141  146.0161  158.7586 F       1  UNL1       -0.2042
     13 C         142.0588  143.9527  160.1507 C.ar    1  UNL1        0.0295
     14 C         141.9363  143.1025  161.3804 C.ar    1  UNL1        0.0025
     15 C         139.8155  141.8600  162.8634 C.ar    1  UNL1        0.0488
     16 C         140.2520  140.7043  162.0125 C.ar    1  UNL1        0.0057
     17 C         139.2434  139.9491  161.1986 C.ar    1  UNL1        0.0495
     18 C         137.7984  140.3496  161.2356 C.ar    1  UNL1        0.2223
     19 F         136.7898  139.5943  160.4216 F       1  UNL1       -0.1832
     20 N         137.3619  141.5052  162.0864 N.ar    1  UNL1       -0.2166
     21 C         138.3704  142.2604  162.9003 C.ar    1  UNL1        0.1014
     22 C         141.3044  141.1603  167.2435 C.ar    1  UNL1        0.0854
     23 C         142.5858  140.6348  167.8194 C.ar    1  UNL1        0.0281
     24 C         142.5713  139.8780  169.1144 C.ar    1  UNL1        0.0999
     25 N         141.2754  139.6467  169.8335 N.ar    1  UNL1       -0.2335
     26 C         139.9939  140.1722  169.2575 C.ar    1  UNL1        0.1494
     27 C         140.0085  140.9290  167.9626 C.ar    1  UNL1        0.0370
     28 C         138.6980  139.9409  169.9766 C.1     1  UNL1        0.1198
     29 N         137.4020  139.7096  170.6956 N.1     1  UNL1       -0.1893
@<TRIPOS>BOND
     1     2     1    1
     2     2     3    1
     3     3     4    1
     4     4    22    1
     5    22    23   ar
     6    23    24   ar
     7    24    25   ar
     8    25    26   ar
     9    26    28    1
    10    28    29    3
    11    26    27   ar
    12     4     5    2
    13     5     6    1
    14     6     8    1
    15     8     9   ar
    16     9    10   ar
    17    10    11   ar
    18    11    12    1
    19    11    13   ar
    20    13    14   ar
    21     6    15    1
    22    15    16   ar
    23    16    17   ar
    24    17    18   ar
    25    18    19    1
    26    18    20   ar
    27    20    21   ar
    28     6     2    1
    29    14     8   ar
    30    21    15   ar
    31    27    22   ar
    32     3     7    1
@<TRIPOS>MOLECULE
*****
 29 32 0 0 0
SMALL
GASTEIGER

@<TRIPOS>ATOM
      1 C         142.6050  139.7795  167.6600 C.3     1  UNL1        0.0559
      2 C         142.3391  139.9941  166.1995 C.3     1  UNL1        0.2097
      3 N         143.0693  139.3390  165.0648 N.pl3   1  UNL1       -0.2183
      4 C         142.4778  139.8415  163.7812 C.2     1  UNL1        0.3162
      5 N         141.3820  140.8072  164.1226 N.2     1  UNL1       -0.0615
      6 C         141.2962  140.9016  165.6171 C.3     1  UNL1        0.2514
      7 H         143.8073  138.6926  165.1479 H       1  UNL1        0.2923
      8 C         140.9786  141.1985  167.0527 C.ar    1  UNL1        0.0297
      9 C         139.9338  140.3971  167.7709 C.ar    1  UNL1        0.0025
     10 C         139.6161  140.6940  169.2066 C.ar    1  UNL1        0.0295
     11 C         140.3433  141.7924  169.9239 C.ar    1  UNL1        0.1401
     12 F         140.0257  142.0894  171.3595 F       1  UNL1       -0.2042
     13 C         141.3883  142.5939  169.2056 C.ar    1  UNL1        0.0295
     14 C         141.7059  142.2970  167.7701 C.ar    1  UNL1        0.0025
     15 C         140.1870  141.8711  165.3350 C.ar    1  UNL1        0.0488
     16 C         140.4272  143.3456  165.4700 C.ar    1  UNL1        0.0057
     17 C         139.3180  144.3151  165.1878 C.ar    1  UNL1        0.0495
     18 C         137.9686  143.8101  164.7706 C.ar    1  UNL1        0.2223
     19 F         136.8593  144.7797  164.4885 F       1  UNL1       -0.1832
     20 N         137.7284  142.3357  164.6356 N.ar    1  UNL1       -0.2166
     21 C         138.8376  141.3661  164.9178 C.ar    1  UNL1        0.1014
     22 C         142.9068  139.4475  162.3988 C.ar    1  UNL1        0.0854
     23 C         142.9494  137.9991  162.0110 C.ar    1  UNL1        0.0281
     24 C         143.3784  137.6052  160.6288 C.ar    1  UNL1        0.0999
     25 N         143.7649  138.6595  159.6343 N.ar    1  UNL1       -0.2335
     26 C         143.7223  140.1079  160.0221 C.ar    1  UNL1        0.1494
     27 C         143.2933  140.5019  161.4044 C.ar    1  UNL1        0.0370
     28 C         144.1087  141.1623  159.0277 C.1     1  UNL1        0.1198
     29 N         144.4952  142.2166  158.0332 N.1     1  UNL1       -0.1893
@<TRIPOS>BOND
     1     2     1    1
     2     2     3    1
     3     3     4    1
     4     4    22    1
     5    22    23   ar
     6    23    24   ar
     7    24    25   ar
     8    25    26   ar
     9    26    28    1
    10    28    29    3
    11    26    27   ar
    12     4     5    2
    13     5     6    1
    14     6     8    1
    15     8     9   ar
    16     9    10   ar
    17    10    11   ar
    18    11    12    1
    19    11    13   ar
    20    13    14   ar
    21     6    15    1
    22    15    16   ar
    23    16    17   ar
    24    17    18   ar
    25    18    19    1
    26    18    20   ar
    27    20    21   ar
    28     6     2    1
    29    14     8   ar
    30    21    15   ar
    31    27    22   ar
    32     3     7    1
