@<TRIPOS>MOLECULE
*****
 49 55 0 0 0
SMALL
GASTEIGER

@<TRIPOS>ATOM
      1 C         142.6763  135.7679  155.7614 C.ar    1  UNL1        0.0516
      2 C         141.4837  135.0335  155.2242 C.ar    1  UNL1        0.0148
      3 C         141.4025  133.5411  155.3505 C.ar    1  UNL1        0.0043
      4 C         142.5139  132.7830  156.0141 C.ar    1  UNL1        0.0360
      5 C         143.7064  133.5174  156.5513 C.ar    1  UNL1        0.0043
      6 C         143.7876  135.0099  156.4249 C.ar    1  UNL1        0.0148
      7 N         142.7794  139.6137  156.7357 N.am    1  UNL1       -0.2681
      8 C         142.6982  138.1212  156.8620 C.2     1  UNL1        0.3082
      9 O         142.5578  137.4896  158.2153 O.2     1  UNL1       -0.2522
     10 N         142.7575  137.2604  155.6351 N.am    1  UNL1       -0.2681
     11 H         142.8716  140.0283  155.8475 H       1  UNL1        0.1564
     12 H         142.8496  137.6749  154.7469 H       1  UNL1        0.1564
     13 C         142.6016  142.1962  160.4166 C.ar    1  UNL1        0.0537
     14 C         141.3550  141.9310  159.6255 C.ar    1  UNL1        0.0058
     15 C         141.4143  141.0702  158.3986 C.ar    1  UNL1        0.0149
     16 C         142.7202  140.4746  157.9627 C.ar    1  UNL1        0.0516
     17 C         143.9667  140.7397  158.7537 C.ar    1  UNL1        0.0149
     18 C         143.9074  141.6006  159.9807 C.ar    1  UNL1        0.0058
     19 N         141.6526  141.2082  165.6485 N.3     1  UNL1       -0.2711
     20 C         141.7118  140.3473  164.4216 C.3     1  UNL1        0.0939
     21 C         142.0084  140.9636  163.0866 C.3     1  UNL1        0.1110
     22 N         142.2457  142.4408  162.9785 N.am    1  UNL1       -0.2732
     23 C         142.5423  143.0571  161.6436 C.2     1  UNL1        0.2491
     24 O         142.7797  144.5342  161.5355 O.2     1  UNL1       -0.2699
     25 C         142.1865  143.3016  164.2055 C.3     1  UNL1        0.1110
     26 C         141.8899  142.6853  165.5405 C.3     1  UNL1        0.0939
     27 C         139.9354  140.4395  167.4403 C.3     1  UNL1        0.0173
     28 C         141.3560  140.5919  166.9835 C.3     1  UNL1        0.0577
     29 C         142.4800  140.1279  167.8618 C.3     1  UNL1        0.0173
     30 C         142.4327  131.2905  156.1404 C.ar    1  UNL1        0.1664
     31 N         141.4334  130.5223  155.3273 N.ar    1  UNL1       -0.2118
     32 C         141.3522  129.0298  155.4536 C.ar    1  UNL1        0.1434
     33 N         142.2704  128.3056  156.3930 N.ar    1  UNL1       -0.1987
     34 C         143.2697  129.0738  157.2061 C.ar    1  UNL1        0.2226
     35 N         143.3509  130.5663  157.0798 N.ar    1  UNL1       -0.1945
     36 N         144.1879  128.3496  158.1456 N.pl3   1  UNL1       -0.2764
     37 C         143.9568  128.4234  159.6258 C.3     1  UNL1        0.1051
     38 C         143.3298  128.9566  158.3718 C.3     1  UNL1        0.0242
     39 C         144.1268  128.4533  157.2049 C.3     1  UNL1        0.0242
     40 C         145.3371  127.5517  157.6047 C.3     1  UNL1        0.1051
     41 C         146.2553  126.8275  158.5441 C.3     1  UNL1        0.1619
     42 O         146.0242  126.9013  160.0243 O.3     1  UNL1       -0.3503
     43 C         144.8750  127.6992  160.5652 C.3     1  UNL1        0.1619
     44 C         140.3529  128.2616  154.6405 C.3     1  UNL1        0.0638
     45 C         140.2557  128.4894  153.1611 C.3     1  UNL1        0.0397
     46 C         139.2563  127.7212  152.3480 C.3     1  UNL1        0.1426
     47 O         138.3542  126.7250  153.0143 O.3     1  UNL1       -0.3538
     48 C         138.4515  126.4972  154.4937 C.3     1  UNL1        0.1426
     49 C         139.4508  127.2654  155.3068 C.3     1  UNL1        0.0397
@<TRIPOS>BOND
     1    27    28    1
     2    28    29    1
     3    28    19    1
     4    19    20    1
     5    20    21    1
     6    21    22    1
     7    22    23   am
     8    23    24    2
     9    23    13    1
    10    13    14   ar
    11    14    15   ar
    12    15    16   ar
    13    16     7    1
    14     7     8   am
    15     8     9    2
    16     8    10   am
    17    10     1    1
    18     1     2   ar
    19     2     3   ar
    20     3     4   ar
    21     4    30    1
    22    30    31   ar
    23    31    32   ar
    24    32    44    1
    25    44    45    1
    26    45    46    1
    27    46    47    1
    28    47    48    1
    29    48    49    1
    30    32    33   ar
    31    33    34   ar
    32    34    36    1
    33    36    37    1
    34    37    38    1
    35    38    39    1
    36    39    40    1
    37    40    41    1
    38    41    42    1
    39    42    43    1
    40    34    35   ar
    41     4     5   ar
    42     5     6   ar
    43    16    17   ar
    44    17    18   ar
    45    22    25    1
    46    25    26    1
    47    26    19    1
    48    18    13   ar
    49     6     1   ar
    50    35    30   ar
    51    49    44    1
    52    40    36    1
    53    43    37    1
    54     7    11    1
    55    10    12    1
@<TRIPOS>MOLECULE
*****
 49 55 0 0 0
SMALL
GASTEIGER

@<TRIPOS>ATOM
      1 C         140.4444  139.8439  157.9231 C.ar    1  UNL1        0.0516
      2 C         141.8429  139.6472  157.4176 C.ar    1  UNL1        0.0148
      3 C         142.4736  140.6822  156.5339 C.ar    1  UNL1        0.0043
      4 C         141.7057  141.9140  156.1556 C.ar    1  UNL1        0.0360
      5 C         140.3072  142.1107  156.6611 C.ar    1  UNL1        0.0043
      6 C         139.6765  141.0757  157.5448 C.ar    1  UNL1        0.0148
      7 N         139.0352  138.0322  161.1606 N.am    1  UNL1       -0.2681
      8 C         139.6659  139.0672  160.2769 C.2     1  UNL1        0.3082
      9 O         140.1487  140.3607  160.8634 O.2     1  UNL1       -0.2522
     10 N         139.8137  138.8089  158.8068 N.am    1  UNL1       -0.2681
     11 H         138.7183  137.1832  160.7757 H       1  UNL1        0.1564
     12 H         139.4968  137.9600  158.4218 H       1  UNL1        0.1564
     13 C         138.5917  138.8074  165.5711 C.ar    1  UNL1        0.0537
     14 C         138.0337  139.7835  164.5782 C.ar    1  UNL1        0.0058
     15 C         138.1815  139.5251  163.1081 C.ar    1  UNL1        0.0149
     16 C         138.8874  138.2906  162.6308 C.ar    1  UNL1        0.0516
     17 C         139.4454  137.3145  163.6237 C.ar    1  UNL1        0.0149
     18 C         139.2976  137.5729  165.0938 C.ar    1  UNL1        0.0058
     19 N         141.3557  141.7685  169.1548 N.3     1  UNL1       -0.2711
     20 C         141.5035  141.5101  167.6846 C.3     1  UNL1        0.0939
     21 C         140.5329  140.6092  166.9801 C.3     1  UNL1        0.1110
     22 N         139.4145  139.9667  167.7457 N.am    1  UNL1       -0.2732
     23 C         138.4439  139.0658  167.0413 C.2     1  UNL1        0.2491
     24 O         137.3254  138.4233  167.8069 O.2     1  UNL1       -0.2699
     25 C         139.2666  140.2251  169.2160 C.3     1  UNL1        0.1110
     26 C         140.2372  141.1260  169.9204 C.3     1  UNL1        0.0939
     27 C         141.8349  143.9057  170.5522 C.3     1  UNL1        0.0173
     28 C         142.3263  142.6694  169.8592 C.3     1  UNL1        0.0577
     29 C         143.7883  142.3340  169.8708 C.3     1  UNL1        0.0173
     30 C         142.3363  142.9491  155.2719 C.ar    1  UNL1        0.1664
     31 N         141.5760  144.1906  154.9104 N.ar    1  UNL1       -0.2118
     32 C         142.2066  145.2257  154.0267 C.ar    1  UNL1        0.1434
     33 N         143.5976  145.0192  153.5045 N.ar    1  UNL1       -0.1987
     34 C         144.3579  143.7778  153.8661 C.ar    1  UNL1        0.2226
     35 N         143.7272  142.7427  154.7498 N.ar    1  UNL1       -0.1945
     36 N         145.7489  143.5713  153.3439 N.pl3   1  UNL1       -0.2764
     37 C         146.0751  142.3459  152.5429 C.3     1  UNL1        0.1051
     38 C         144.8840  142.9426  153.2321 C.3     1  UNL1        0.0242
     39 C         145.3104  144.2386  153.8557 C.3     1  UNL1        0.0242
     40 C         146.8136  144.5904  153.6229 C.3     1  UNL1        0.1051
     41 C         148.2046  144.3841  153.1008 C.3     1  UNL1        0.1619
     42 O         148.5308  143.1586  152.2997 O.3     1  UNL1       -0.3503
     43 C         147.4661  142.1395  152.0208 C.3     1  UNL1        0.1619
     44 C         141.4464  146.4671  153.6651 C.3     1  UNL1        0.0638
     45 C         140.4688  147.0577  154.6375 C.3     1  UNL1        0.0397
     46 C         139.7084  148.2992  154.2759 C.3     1  UNL1        0.1426
     47 O         139.9258  148.9500  152.9421 O.3     1  UNL1       -0.3538
     48 C         140.9034  148.3594  151.9697 C.3     1  UNL1        0.1426
     49 C         141.6637  147.1179  152.3313 C.3     1  UNL1        0.0397
@<TRIPOS>BOND
     1    27    28    1
     2    28    29    1
     3    28    19    1
     4    19    20    1
     5    20    21    1
     6    21    22    1
     7    22    23   am
     8    23    24    2
     9    23    13    1
    10    13    14   ar
    11    14    15   ar
    12    15    16   ar
    13    16     7    1
    14     7     8   am
    15     8     9    2
    16     8    10   am
    17    10     1    1
    18     1     2   ar
    19     2     3   ar
    20     3     4   ar
    21     4    30    1
    22    30    31   ar
    23    31    32   ar
    24    32    44    1
    25    44    45    1
    26    45    46    1
    27    46    47    1
    28    47    48    1
    29    48    49    1
    30    32    33   ar
    31    33    34   ar
    32    34    36    1
    33    36    37    1
    34    37    38    1
    35    38    39    1
    36    39    40    1
    37    40    41    1
    38    41    42    1
    39    42    43    1
    40    34    35   ar
    41     4     5   ar
    42     5     6   ar
    43    16    17   ar
    44    17    18   ar
    45    22    25    1
    46    25    26    1
    47    26    19    1
    48    18    13   ar
    49     6     1   ar
    50    35    30   ar
    51    49    44    1
    52    40    36    1
    53    43    37    1
    54     7    11    1
    55    10    12    1
@<TRIPOS>MOLECULE
*****
 49 55 0 0 0
SMALL
GASTEIGER

@<TRIPOS>ATOM
      1 C         140.1252  140.0531  157.9328 C.ar    1  UNL1        0.0516
      2 C         141.4733  139.7827  157.3332 C.ar    1  UNL1        0.0148
      3 C         142.1233  140.8104  156.4550 C.ar    1  UNL1        0.0043
      4 C         141.4252  142.1086  156.1764 C.ar    1  UNL1        0.0360
      5 C         140.0771  142.3789  156.7761 C.ar    1  UNL1        0.0043
      6 C         139.4271  141.3512  157.6543 C.ar    1  UNL1        0.0148
      7 N         138.7467  138.2185  161.1708 N.am    1  UNL1       -0.2681
      8 C         139.3968  139.2463  160.2926 C.2     1  UNL1        0.3082
      9 O         139.9683  140.4950  160.8960 O.2     1  UNL1       -0.2522
     10 N         139.4752  139.0253  158.8110 N.am    1  UNL1       -0.2681
     11 H         138.3716  137.3990  160.7748 H       1  UNL1        0.1564
     12 H         139.1000  138.2058  158.4150 H       1  UNL1        0.1564
     13 C         138.5115  138.8815  165.6154 C.ar    1  UNL1        0.0537
     14 C         137.9940  139.9272  164.6727 C.ar    1  UNL1        0.0058
     15 C         138.0724  139.7062  163.1912 C.ar    1  UNL1        0.0149
     16 C         138.6683  138.4395  162.6524 C.ar    1  UNL1        0.0516
     17 C         139.1858  137.3938  163.5951 C.ar    1  UNL1        0.0149
     18 C         139.1074  137.6148  165.0766 C.ar    1  UNL1        0.0058
     19 N         141.4569  141.7335  169.1427 N.3     1  UNL1       -0.2711
     20 C         141.5353  141.5125  167.6612 C.3     1  UNL1        0.0939
     21 C         140.5274  140.6355  166.9792 C.3     1  UNL1        0.1110
     22 N         139.4410  139.9795  167.7789 N.am    1  UNL1       -0.2732
     23 C         138.4331  139.1025  167.0970 C.2     1  UNL1        0.2491
     24 O         137.3467  138.4465  167.8967 O.2     1  UNL1       -0.2699
     25 C         139.3626  140.2005  169.2605 C.3     1  UNL1        0.1110
     26 C         140.3705  141.0774  169.9424 C.3     1  UNL1        0.0939
     27 C         142.0134  143.8271  170.5768 C.3     1  UNL1        0.0173
     28 C         142.4648  142.6104  169.8246 C.3     1  UNL1        0.0577
     29 C         143.9242  142.2707  169.7542 C.3     1  UNL1        0.0173
     30 C         142.0752  143.1363  155.2982 C.ar    1  UNL1        0.1664
     31 N         143.4684  142.9142  154.7884 N.ar    1  UNL1       -0.2118
     32 C         144.1184  143.9419  153.9102 C.ar    1  UNL1        0.1434
     33 N         143.3752  145.1918  153.5418 N.ar    1  UNL1       -0.1987
     34 C         141.9821  145.4139  154.0516 C.ar    1  UNL1        0.2226
     35 N         141.3321  144.3861  154.9298 N.ar    1  UNL1       -0.1945
     36 N         141.2389  146.6637  153.6832 N.pl3   1  UNL1       -0.2764
     37 C         140.2903  147.2885  154.6628 C.3     1  UNL1        0.1051
     38 C         141.2029  146.0999  154.5980 C.3     1  UNL1        0.0242
     39 C         141.8694  146.1000  153.2541 C.3     1  UNL1        0.0242
     40 C         141.4445  147.2887  152.3352 C.3     1  UNL1        0.1051
     41 C         140.7014  148.5385  151.9668 C.3     1  UNL1        0.1619
     42 O         139.7528  149.1633  152.9464 O.3     1  UNL1       -0.3503
     43 C         139.5472  148.5383  154.2944 C.3     1  UNL1        0.1619
     44 C         145.5114  143.7199  153.4004 C.3     1  UNL1        0.0638
     45 C         146.5736  144.7498  153.6476 C.3     1  UNL1        0.0397
     46 C         147.9667  144.5277  153.1378 C.3     1  UNL1        0.1426
     47 O         148.2977  143.2758  152.3808 O.3     1  UNL1       -0.3538
     48 C         147.2355  142.2458  152.1336 C.3     1  UNL1        0.1426
     49 C         145.8424  142.4679  152.6434 C.3     1  UNL1        0.0397
@<TRIPOS>BOND
     1    27    28    1
     2    28    29    1
     3    28    19    1
     4    19    20    1
     5    20    21    1
     6    21    22    1
     7    22    23   am
     8    23    24    2
     9    23    13    1
    10    13    14   ar
    11    14    15   ar
    12    15    16   ar
    13    16     7    1
    14     7     8   am
    15     8     9    2
    16     8    10   am
    17    10     1    1
    18     1     2   ar
    19     2     3   ar
    20     3     4   ar
    21     4    30    1
    22    30    31   ar
    23    31    32   ar
    24    32    44    1
    25    44    45    1
    26    45    46    1
    27    46    47    1
    28    47    48    1
    29    48    49    1
    30    32    33   ar
    31    33    34   ar
    32    34    36    1
    33    36    37    1
    34    37    38    1
    35    38    39    1
    36    39    40    1
    37    40    41    1
    38    41    42    1
    39    42    43    1
    40    34    35   ar
    41     4     5   ar
    42     5     6   ar
    43    16    17   ar
    44    17    18   ar
    45    22    25    1
    46    25    26    1
    47    26    19    1
    48    18    13   ar
    49     6     1   ar
    50    35    30   ar
    51    49    44    1
    52    40    36    1
    53    43    37    1
    54     7    11    1
    55    10    12    1
@<TRIPOS>MOLECULE
*****
 49 55 0 0 0
SMALL
GASTEIGER

@<TRIPOS>ATOM
      1 C         142.5051  140.8233  158.2617 C.ar    1  UNL1        0.0516
      2 C         142.3772  142.2873  158.5622 C.ar    1  UNL1        0.0148
      3 C         141.4593  143.1440  157.7415 C.ar    1  UNL1        0.0043
      4 C         140.6693  142.5366  156.6203 C.ar    1  UNL1        0.0360
      5 C         140.7971  141.0726  156.3199 C.ar    1  UNL1        0.0043
      6 C         141.7150  140.2159  157.1406 C.ar    1  UNL1        0.0148
      7 N         144.1408  139.0027  161.3859 N.am    1  UNL1       -0.2681
      8 C         143.2229  139.8594  160.5651 C.2     1  UNL1        0.3082
      9 O         142.1048  140.6090  161.2272 O.2     1  UNL1       -0.2522
     10 N         143.4230  139.9666  159.0824 N.am    1  UNL1       -0.2681
     11 H         144.8745  138.5108  160.9514 H       1  UNL1        0.1564
     12 H         144.1567  139.4746  158.6479 H       1  UNL1        0.1564
     13 C         143.5405  138.6815  165.8340 C.ar    1  UNL1        0.0537
     14 C         144.7013  139.4590  165.2881 C.ar    1  UNL1        0.0058
     15 C         144.9013  139.5660  163.8054 C.ar    1  UNL1        0.0149
     16 C         143.9406  138.8956  162.8686 C.ar    1  UNL1        0.0516
     17 C         142.7799  138.1181  163.4145 C.ar    1  UNL1        0.0149
     18 C         142.5798  138.0111  164.8972 C.ar    1  UNL1        0.0058
     19 N         141.0318  141.7532  169.5112 N.3     1  UNL1       -0.2711
     20 C         141.2319  141.8604  168.0285 C.3     1  UNL1        0.0939
     21 C         142.0014  140.8007  167.2970 C.3     1  UNL1        0.1110
     22 N         142.5708  139.6340  168.0482 N.am    1  UNL1       -0.2732
     23 C         143.3403  138.5743  167.3168 C.2     1  UNL1        0.2491
     24 O         143.9098  137.4076  168.0681 O.2     1  UNL1       -0.2699
     25 C         142.3707  139.5268  169.5310 C.3     1  UNL1        0.1110
     26 C         141.6012  140.5865  170.2624 C.3     1  UNL1        0.0939
     27 C         139.2082  142.4233  171.2361 C.3     1  UNL1        0.0173
     28 C         140.2623  142.8129  170.2426 C.3     1  UNL1        0.0577
     29 C         140.5469  144.2622  169.9805 C.3     1  UNL1        0.0173
     30 C         139.7514  143.3933  155.7996 C.ar    1  UNL1        0.1664
     31 N         138.5360  142.7908  155.1593 N.ar    1  UNL1       -0.2118
     32 C         137.6181  143.6475  154.3385 C.ar    1  UNL1        0.1434
     33 N         137.9156  145.1067  154.1582 N.ar    1  UNL1       -0.1987
     34 C         139.1309  145.7091  154.7985 C.ar    1  UNL1        0.2226
     35 N         140.0488  144.8524  155.6192 N.ar    1  UNL1       -0.1945
     36 N         139.4284  147.1682  154.6182 N.pl3   1  UNL1       -0.2764
     37 C         138.7644  148.1836  155.5002 C.3     1  UNL1        0.1051
     38 C         138.7715  146.6939  155.3249 C.3     1  UNL1        0.0242
     39 C         139.7099  146.3638  154.2022 C.3     1  UNL1        0.0242
     40 C         140.3898  147.6119  153.5557 C.3     1  UNL1        0.1051
     41 C         140.6873  149.0709  153.3753 C.3     1  UNL1        0.1619
     42 O         140.0234  150.0863  154.2574 O.3     1  UNL1       -0.3503
     43 C         139.0619  149.6427  155.3198 C.3     1  UNL1        0.1619
     44 C         136.4028  143.0451  153.6982 C.3     1  UNL1        0.0638
     45 C         135.6857  143.7839  152.6074 C.3     1  UNL1        0.0397
     46 C         134.4703  143.1815  151.9670 C.3     1  UNL1        0.1426
     47 O         133.9721  141.8403  152.4175 O.3     1  UNL1       -0.3538
     48 C         134.6892  141.1015  153.5083 C.3     1  UNL1        0.1426
     49 C         135.9046  141.7039  154.1487 C.3     1  UNL1        0.0397
@<TRIPOS>BOND
     1    27    28    1
     2    28    29    1
     3    28    19    1
     4    19    20    1
     5    20    21    1
     6    21    22    1
     7    22    23   am
     8    23    24    2
     9    23    13    1
    10    13    14   ar
    11    14    15   ar
    12    15    16   ar
    13    16     7    1
    14     7     8   am
    15     8     9    2
    16     8    10   am
    17    10     1    1
    18     1     2   ar
    19     2     3   ar
    20     3     4   ar
    21     4    30    1
    22    30    31   ar
    23    31    32   ar
    24    32    44    1
    25    44    45    1
    26    45    46    1
    27    46    47    1
    28    47    48    1
    29    48    49    1
    30    32    33   ar
    31    33    34   ar
    32    34    36    1
    33    36    37    1
    34    37    38    1
    35    38    39    1
    36    39    40    1
    37    40    41    1
    38    41    42    1
    39    42    43    1
    40    34    35   ar
    41     4     5   ar
    42     5     6   ar
    43    16    17   ar
    44    17    18   ar
    45    22    25    1
    46    25    26    1
    47    26    19    1
    48    18    13   ar
    49     6     1   ar
    50    35    30   ar
    51    49    44    1
    52    40    36    1
    53    43    37    1
    54     7    11    1
    55    10    12    1
@<TRIPOS>MOLECULE
*****
 49 55 0 0 0
SMALL
GASTEIGER

@<TRIPOS>ATOM
      1 C         141.8578  138.9459  157.5387 C.ar    1  UNL1        0.0516
      2 C         142.8825  138.4967  158.5379 C.ar    1  UNL1        0.0148
      3 C         142.7586  138.9071  159.9754 C.ar    1  UNL1        0.0043
      4 C         141.6101  139.7668  160.4136 C.ar    1  UNL1        0.0360
      5 C         140.5855  140.2159  159.4144 C.ar    1  UNL1        0.0043
      6 C         140.7093  139.8055  157.9770 C.ar    1  UNL1        0.0148
      7 N         142.2316  136.6737  154.3065 N.am    1  UNL1       -0.2681
      8 C         142.1077  137.0841  155.7439 C.2     1  UNL1        0.3082
      9 O         142.1100  136.0432  156.8240 O.2     1  UNL1       -0.2522
     10 N         141.9816  138.5354  156.1013 N.am    1  UNL1       -0.2681
     11 H         142.2301  137.3569  153.5976 H       1  UNL1        0.1564
     12 H         141.9801  139.2186  155.3924 H       1  UNL1        0.1564
     13 C         142.6100  132.3196  153.2346 C.ar    1  UNL1        0.0537
     14 C         143.2218  132.8356  154.5032 C.ar    1  UNL1        0.0058
     15 C         143.0956  134.2869  154.8605 C.ar    1  UNL1        0.0149
     16 C         142.3577  135.2223  153.9492 C.ar    1  UNL1        0.0516
     17 C         141.7460  134.7063  152.6805 C.ar    1  UNL1        0.0149
     18 C         141.8721  133.2550  152.3232 C.ar    1  UNL1        0.0058
     19 N         139.8094  127.8799  154.5366 N.3     1  UNL1       -0.2711
     20 C         139.6832  129.3312  154.8940 C.3     1  UNL1        0.0939
     21 C         140.6588  130.3274  154.3408 C.3     1  UNL1        0.1110
     22 N         141.7606  129.8721  153.4304 N.am    1  UNL1       -0.2732
     23 C         142.7362  130.8682  152.8773 C.2     1  UNL1        0.2491
     24 O         143.8379  130.4130  151.9668 O.2     1  UNL1       -0.2699
     25 C         141.8867  128.4207  153.0730 C.3     1  UNL1        0.1110
     26 C         140.9111  127.4246  153.6261 C.3     1  UNL1        0.0939
     27 C         137.7071  126.3833  154.2352 C.3     1  UNL1        0.0173
     28 C         138.8338  126.8838  155.0897 C.3     1  UNL1        0.0577
     29 C         138.9849  126.3880  156.4974 C.3     1  UNL1        0.0173
     30 C         141.4862  140.1772  161.8510 C.ar    1  UNL1        0.1664
     31 N         140.5456  139.4450  162.7617 N.ar    1  UNL1       -0.2118
     32 C         140.4218  139.8555  164.1991 C.ar    1  UNL1        0.1434
     33 N         141.2386  140.9981  164.7259 N.ar    1  UNL1       -0.1987
     34 C         142.1791  141.7302  163.8152 C.ar    1  UNL1        0.2226
     35 N         142.3029  141.3198  162.3778 N.ar    1  UNL1       -0.1945
     36 N         142.9958  142.8729  164.3419 N.pl3   1  UNL1       -0.2764
     37 C         144.0796  142.6193  165.3474 C.3     1  UNL1        0.1051
     38 C         143.0619  141.8269  164.5817 C.3     1  UNL1        0.0242
     39 C         142.2819  142.7795  163.7247 C.3     1  UNL1        0.0242
     40 C         142.7288  144.2691  163.8631 C.3     1  UNL1        0.1051
     41 C         143.5454  145.4117  164.3898 C.3     1  UNL1        0.1619
     42 O         144.6292  145.1581  165.3953 O.3     1  UNL1       -0.3503
     43 C         144.8963  143.7619  165.8741 C.3     1  UNL1        0.1619
     44 C         139.4813  139.1234  165.1098 C.3     1  UNL1        0.0638
     45 C         139.1909  137.6703  164.8770 C.3     1  UNL1        0.0397
     46 C         138.2503  136.9381  165.7877 C.3     1  UNL1        0.1426
     47 O         137.6002  137.6591  166.9311 O.3     1  UNL1       -0.3538
     48 C         137.8905  139.1122  167.1639 C.3     1  UNL1        0.1426
     49 C         138.8311  139.8443  166.2532 C.3     1  UNL1        0.0397
@<TRIPOS>BOND
     1    27    28    1
     2    28    29    1
     3    28    19    1
     4    19    20    1
     5    20    21    1
     6    21    22    1
     7    22    23   am
     8    23    24    2
     9    23    13    1
    10    13    14   ar
    11    14    15   ar
    12    15    16   ar
    13    16     7    1
    14     7     8   am
    15     8     9    2
    16     8    10   am
    17    10     1    1
    18     1     2   ar
    19     2     3   ar
    20     3     4   ar
    21     4    30    1
    22    30    31   ar
    23    31    32   ar
    24    32    44    1
    25    44    45    1
    26    45    46    1
    27    46    47    1
    28    47    48    1
    29    48    49    1
    30    32    33   ar
    31    33    34   ar
    32    34    36    1
    33    36    37    1
    34    37    38    1
    35    38    39    1
    36    39    40    1
    37    40    41    1
    38    41    42    1
    39    42    43    1
    40    34    35   ar
    41     4     5   ar
    42     5     6   ar
    43    16    17   ar
    44    17    18   ar
    45    22    25    1
    46    25    26    1
    47    26    19    1
    48    18    13   ar
    49     6     1   ar
    50    35    30   ar
    51    49    44    1
    52    40    36    1
    53    43    37    1
    54     7    11    1
    55    10    12    1
@<TRIPOS>MOLECULE
*****
 49 55 0 0 0
SMALL
GASTEIGER

@<TRIPOS>ATOM
      1 C         142.2310  140.5693  158.2834 C.ar    1  UNL1        0.0516
      2 C         140.7664  140.2597  158.1874 C.ar    1  UNL1        0.0148
      3 C         139.8648  141.1425  157.3763 C.ar    1  UNL1        0.0043
      4 C         140.4278  142.3350  156.6614 C.ar    1  UNL1        0.0360
      5 C         141.8924  142.6445  156.7574 C.ar    1  UNL1        0.0043
      6 C         142.7939  141.7617  157.5685 C.ar    1  UNL1        0.0148
      7 N         143.8925  138.7557  161.3980 N.am    1  UNL1       -0.2681
      8 C         142.9909  139.6386  160.5870 C.2     1  UNL1        0.3082
      9 O         141.9476  140.4735  161.2685 O.2     1  UNL1       -0.2522
     10 N         143.1326  139.6865  159.0945 N.am    1  UNL1       -0.2681
     11 H         144.5772  138.2077  160.9507 H       1  UNL1        0.1564
     12 H         143.8173  139.1385  158.6472 H       1  UNL1        0.1564
     13 C         143.4672  138.6121  165.8755 C.ar    1  UNL1        0.0537
     14 C         142.3772  138.0673  165.0008 C.ar    1  UNL1        0.0058
     15 C         142.5190  138.1152  163.5083 C.ar    1  UNL1        0.0149
     16 C         143.7507  138.7079  162.8906 C.ar    1  UNL1        0.0516
     17 C         144.8406  139.2527  163.7653 C.ar    1  UNL1        0.0149
     18 C         144.6989  139.2048  165.2578 C.ar    1  UNL1        0.0058
     19 N         141.0284  141.7839  169.5146 N.3     1  UNL1       -0.2711
     20 C         141.1701  141.8318  168.0221 C.3     1  UNL1        0.0939
     21 C         141.9358  140.7585  167.3065 C.3     1  UNL1        0.1110
     22 N         142.5598  139.6374  168.0836 N.am    1  UNL1       -0.2732
     23 C         143.3254  138.5642  167.3681 C.2     1  UNL1        0.2491
     24 O         143.9494  137.4431  168.1451 O.2     1  UNL1       -0.2699
     25 C         142.4180  139.5896  169.5761 C.3     1  UNL1        0.1110
     26 C         141.6523  140.6628  170.2916 C.3     1  UNL1        0.0939
     27 C         140.6976  144.2885  170.1208 C.3     1  UNL1        0.0173
     28 C         140.2627  142.8571  170.2300 C.3     1  UNL1        0.0577
     29 C         139.0620  142.4989  171.0548 C.3     1  UNL1        0.0173
     30 C         139.5263  143.2178  155.8503 C.ar    1  UNL1        0.1664
     31 N         139.8789  144.6609  155.6421 N.ar    1  UNL1       -0.2118
     32 C         138.9773  145.5437  154.8310 C.ar    1  UNL1        0.1434
     33 N         137.7231  144.9834  154.2283 N.ar    1  UNL1       -0.1987
     34 C         137.3706  143.5404  154.4365 C.ar    1  UNL1        0.2226
     35 N         138.2722  142.6576  155.2476 N.ar    1  UNL1       -0.1945
     36 N         136.1164  142.9802  153.8338 N.pl3   1  UNL1       -0.2764
     37 C         135.5636  143.5693  152.5699 C.3     1  UNL1        0.1051
     38 C         136.7299  143.7920  153.4866 C.3     1  UNL1        0.0242
     39 C         136.6441  142.7882  154.5980 C.3     1  UNL1        0.0242
     40 C         135.4151  141.8308  154.4949 C.3     1  UNL1        0.1051
     41 C         134.1610  141.2706  153.8922 C.3     1  UNL1        0.1619
     42 O         133.6082  141.8597  152.6283 O.3     1  UNL1       -0.3503
     43 C         134.3095  143.0090  151.9672 C.3     1  UNL1        0.1619
     44 C         139.3298  146.9867  154.6228 C.3     1  UNL1        0.0638
     45 C         138.7504  148.0377  155.5226 C.3     1  UNL1        0.0397
     46 C         139.1029  149.4808  155.3143 C.3     1  UNL1        0.1426
     47 O         140.0348  149.8728  154.2063 O.3     1  UNL1       -0.3538
     48 C         140.6143  148.8217  153.3065 C.3     1  UNL1        0.1426
     49 C         140.2618  147.3787  153.5147 C.3     1  UNL1        0.0397
@<TRIPOS>BOND
     1    27    28    1
     2    28    29    1
     3    28    19    1
     4    19    20    1
     5    20    21    1
     6    21    22    1
     7    22    23   am
     8    23    24    2
     9    23    13    1
    10    13    14   ar
    11    14    15   ar
    12    15    16   ar
    13    16     7    1
    14     7     8   am
    15     8     9    2
    16     8    10   am
    17    10     1    1
    18     1     2   ar
    19     2     3   ar
    20     3     4   ar
    21     4    30    1
    22    30    31   ar
    23    31    32   ar
    24    32    44    1
    25    44    45    1
    26    45    46    1
    27    46    47    1
    28    47    48    1
    29    48    49    1
    30    32    33   ar
    31    33    34   ar
    32    34    36    1
    33    36    37    1
    34    37    38    1
    35    38    39    1
    36    39    40    1
    37    40    41    1
    38    41    42    1
    39    42    43    1
    40    34    35   ar
    41     4     5   ar
    42     5     6   ar
    43    16    17   ar
    44    17    18   ar
    45    22    25    1
    46    25    26    1
    47    26    19    1
    48    18    13   ar
    49     6     1   ar
    50    35    30   ar
    51    49    44    1
    52    40    36    1
    53    43    37    1
    54     7    11    1
    55    10    12    1
@<TRIPOS>MOLECULE
*****
 49 55 0 0 0
SMALL
GASTEIGER

@<TRIPOS>ATOM
      1 C         142.8110  143.1057  159.9227 C.ar    1  UNL1        0.0516
      2 C         142.6575  142.4590  158.5779 C.ar    1  UNL1        0.0148
      3 C         141.7025  143.0336  157.5740 C.ar    1  UNL1        0.0043
      4 C         140.9009  144.2548  157.9149 C.ar    1  UNL1        0.0360
      5 C         141.0543  144.9014  159.2596 C.ar    1  UNL1        0.0043
      6 C         142.0094  144.3269  160.2635 C.ar    1  UNL1        0.0148
      7 N         144.2821  141.7484  163.3495 N.am    1  UNL1       -0.2681
      8 C         143.3270  142.3229  162.3456 C.2     1  UNL1        0.3082
      9 O         141.9329  142.6892  162.7609 O.2     1  UNL1       -0.2522
     10 N         143.7660  142.5312  160.9266 N.am    1  UNL1       -0.2681
     11 H         145.1970  141.5080  163.0770 H       1  UNL1        0.1564
     12 H         144.6810  142.2909  160.6540 H       1  UNL1        0.1564
     13 C         142.9649  141.1237  167.6068 C.ar    1  UNL1        0.0537
     14 C         143.2921  142.5034  167.1178 C.ar    1  UNL1        0.0058
     15 C         143.7312  142.7117  165.6988 C.ar    1  UNL1        0.0149
     16 C         143.8430  141.5401  164.7687 C.ar    1  UNL1        0.0516
     17 C         143.5157  140.1604  165.2577 C.ar    1  UNL1        0.0149
     18 C         143.0767  139.9522  166.6768 C.ar    1  UNL1        0.0058
     19 N         138.3593  139.4580  169.9013 N.3     1  UNL1       -0.2711
     20 C         138.7983  139.6662  168.4823 C.3     1  UNL1        0.0939
     21 C         140.1872  140.1520  168.1904 C.3     1  UNL1        0.1110
     22 N         141.1370  140.4296  169.3178 N.am    1  UNL1       -0.2732
     23 C         142.5258  140.9154  169.0260 C.2     1  UNL1        0.2491
     24 O         143.4756  141.1930  170.1533 O.2     1  UNL1       -0.2699
     25 C         140.6979  140.2213  170.7369 C.3     1  UNL1        0.1110
     26 C         139.3091  139.7355  171.0287 C.3     1  UNL1        0.0939
     27 C         136.3000  138.0109  169.2569 C.3     1  UNL1        0.0173
     28 C         136.9705  138.9721  170.1931 C.3     1  UNL1        0.0577
     29 C         136.2521  139.4476  171.4211 C.3     1  UNL1        0.0173
     30 C         139.9458  144.8293  156.9110 C.ar    1  UNL1        0.1664
     31 N         138.9080  143.9521  156.2756 N.ar    1  UNL1       -0.2118
     32 C         137.9530  144.5266  155.2717 C.ar    1  UNL1        0.1434
     33 N         138.0357  145.9784  154.9032 N.ar    1  UNL1       -0.1987
     34 C         139.0735  146.8555  155.5385 C.ar    1  UNL1        0.2226
     35 N         140.0285  146.2809  156.5424 N.ar    1  UNL1       -0.1945
     36 N         139.1562  148.3072  155.1700 N.pl3   1  UNL1       -0.2764
     37 C         139.9608  148.7337  153.9781 C.3     1  UNL1        0.1051
     38 C         139.6098  147.4599  154.6881 C.3     1  UNL1        0.0242
     39 C         138.7285  147.8055  155.8517 C.3     1  UNL1        0.0242
     40 C         138.4344  149.3323  155.9934 C.3     1  UNL1        0.1051
     41 C         138.5171  150.7840  155.6249 C.3     1  UNL1        0.1619
     42 O         139.3217  151.2105  154.4330 O.3     1  UNL1       -0.3503
     43 C         140.0435  150.1854  153.6096 C.3     1  UNL1        0.1619
     44 C         136.9152  143.6495  154.6364 C.3     1  UNL1        0.0638
     45 C         136.5145  143.8753  153.2087 C.3     1  UNL1        0.0397
     46 C         135.4767  142.9982  152.5733 C.3     1  UNL1        0.1426
     47 O         134.8397  141.8953  153.3656 O.3     1  UNL1       -0.3538
     48 C         135.2405  141.6695  154.7934 C.3     1  UNL1        0.1426
     49 C         136.2782  142.5466  155.4287 C.3     1  UNL1        0.0397
@<TRIPOS>BOND
     1    27    28    1
     2    28    29    1
     3    28    19    1
     4    19    20    1
     5    20    21    1
     6    21    22    1
     7    22    23   am
     8    23    24    2
     9    23    13    1
    10    13    14   ar
    11    14    15   ar
    12    15    16   ar
    13    16     7    1
    14     7     8   am
    15     8     9    2
    16     8    10   am
    17    10     1    1
    18     1     2   ar
    19     2     3   ar
    20     3     4   ar
    21     4    30    1
    22    30    31   ar
    23    31    32   ar
    24    32    44    1
    25    44    45    1
    26    45    46    1
    27    46    47    1
    28    47    48    1
    29    48    49    1
    30    32    33   ar
    31    33    34   ar
    32    34    36    1
    33    36    37    1
    34    37    38    1
    35    38    39    1
    36    39    40    1
    37    40    41    1
    38    41    42    1
    39    42    43    1
    40    34    35   ar
    41     4     5   ar
    42     5     6   ar
    43    16    17   ar
    44    17    18   ar
    45    22    25    1
    46    25    26    1
    47    26    19    1
    48    18    13   ar
    49     6     1   ar
    50    35    30   ar
    51    49    44    1
    52    40    36    1
    53    43    37    1
    54     7    11    1
    55    10    12    1
@<TRIPOS>MOLECULE
*****
 49 55 0 0 0
SMALL
GASTEIGER

@<TRIPOS>ATOM
      1 C         140.5884  136.7389  154.1234 C.ar    1  UNL1        0.0516
      2 C         139.1507  137.0511  154.4160 C.ar    1  UNL1        0.0148
      3 C         138.7994  138.2208  155.2869 C.ar    1  UNL1        0.0043
      4 C         139.8859  139.0782  155.8653 C.ar    1  UNL1        0.0360
      5 C         141.3235  138.7660  155.5728 C.ar    1  UNL1        0.0043
      6 C         141.6748  137.5963  154.7018 C.ar    1  UNL1        0.0148
      7 N         141.6455  133.0814  153.0032 N.am    1  UNL1       -0.2681
      8 C         141.2942  134.2510  153.8742 C.2     1  UNL1        0.3082
      9 O         141.2975  134.1024  155.3668 O.2     1  UNL1       -0.2522
     10 N         140.9397  135.5693  153.2525 N.am    1  UNL1       -0.2681
     11 H         141.6434  133.1789  152.0236 H       1  UNL1        0.1564
     12 H         140.9376  135.6668  152.2729 H       1  UNL1        0.1564
     13 C         142.7090  129.1266  154.8684 C.ar    1  UNL1        0.0537
     14 C         141.3071  129.6504  154.9689 C.ar    1  UNL1        0.0058
     15 C         140.9526  130.9686  154.3472 C.ar    1  UNL1        0.0149
     16 C         142.0001  131.7631  153.6250 C.ar    1  UNL1        0.0516
     17 C         143.4020  131.2393  153.5244 C.ar    1  UNL1        0.0149
     18 C         143.7565  129.9211  154.1462 C.ar    1  UNL1        0.0058
     19 N         145.2961  127.6903  159.3955 N.3     1  UNL1       -0.2711
     20 C         144.9416  129.0085  158.7738 C.3     1  UNL1        0.0939
     21 C         144.1974  129.0479  157.4720 C.3     1  UNL1        0.1110
     22 N         143.8077  127.7690  156.7919 N.am    1  UNL1       -0.2732
     23 C         143.0636  127.8083  155.4901 C.2     1  UNL1        0.2491
     24 O         142.6739  126.5294  154.8100 O.2     1  UNL1       -0.2699
     25 C         144.1623  126.4507  157.4136 C.3     1  UNL1        0.1110
     26 C         144.9064  126.4114  158.7154 C.3     1  UNL1        0.0939
     27 C         147.4628  128.1221  160.7625 C.3     1  UNL1        0.0173
     28 C         146.0402  127.6510  160.6973 C.3     1  UNL1        0.0577
     29 C         145.3618  127.1405  161.9339 C.3     1  UNL1        0.0173
     30 C         139.5346  140.2479  156.7362 C.ar    1  UNL1        0.1664
     31 N         139.1445  140.0267  158.1677 N.ar    1  UNL1       -0.2118
     32 C         138.7932  141.1963  159.0386 C.ar    1  UNL1        0.1434
     33 N         138.8320  142.5872  158.4781 N.ar    1  UNL1       -0.1987
     34 C         139.2221  142.8083  157.0467 C.ar    1  UNL1        0.2226
     35 N         139.5734  141.6387  156.1758 N.ar    1  UNL1       -0.1945
     36 N         139.2609  144.1992  156.4862 N.pl3   1  UNL1       -0.2764
     37 C         138.1442  144.6867  155.6115 C.3     1  UNL1        0.1051
     38 C         138.5126  143.4381  156.3567 C.3     1  UNL1        0.0242
     39 C         139.8246  143.6781  157.0431 C.3     1  UNL1        0.0242
     40 C         140.4166  145.1024  156.8004 C.3     1  UNL1        0.1051
     41 C         140.4554  146.4932  156.2399 C.3     1  UNL1        0.1619
     42 O         139.3386  146.9807  155.3653 O.3     1  UNL1       -0.3503
     43 C         138.1830  146.0775  155.0511 C.3     1  UNL1        0.1619
     44 C         138.4031  140.9752  160.4700 C.3     1  UNL1        0.0638
     45 C         138.3234  139.5815  161.0188 C.3     1  UNL1        0.0397
     46 C         137.9333  139.3603  162.4503 C.3     1  UNL1        0.1426
     47 O         137.6229  140.5328  163.3328 O.3     1  UNL1       -0.3538
     48 C         137.7027  141.9266  162.7839 C.3     1  UNL1        0.1426
     49 C         138.0928  142.1477  161.3525 C.3     1  UNL1        0.0397
@<TRIPOS>BOND
     1    27    28    1
     2    28    29    1
     3    28    19    1
     4    19    20    1
     5    20    21    1
     6    21    22    1
     7    22    23   am
     8    23    24    2
     9    23    13    1
    10    13    14   ar
    11    14    15   ar
    12    15    16   ar
    13    16     7    1
    14     7     8   am
    15     8     9    2
    16     8    10   am
    17    10     1    1
    18     1     2   ar
    19     2     3   ar
    20     3     4   ar
    21     4    30    1
    22    30    31   ar
    23    31    32   ar
    24    32    44    1
    25    44    45    1
    26    45    46    1
    27    46    47    1
    28    47    48    1
    29    48    49    1
    30    32    33   ar
    31    33    34   ar
    32    34    36    1
    33    36    37    1
    34    37    38    1
    35    38    39    1
    36    39    40    1
    37    40    41    1
    38    41    42    1
    39    42    43    1
    40    34    35   ar
    41     4     5   ar
    42     5     6   ar
    43    16    17   ar
    44    17    18   ar
    45    22    25    1
    46    25    26    1
    47    26    19    1
    48    18    13   ar
    49     6     1   ar
    50    35    30   ar
    51    49    44    1
    52    40    36    1
    53    43    37    1
    54     7    11    1
    55    10    12    1
@<TRIPOS>MOLECULE
*****
 49 55 0 0 0
SMALL
GASTEIGER

@<TRIPOS>ATOM
      1 C         142.1621  138.8643  157.7514 C.ar    1  UNL1        0.0516
      2 C         143.3584  138.9330  158.6538 C.ar    1  UNL1        0.0148
      3 C         143.1985  139.3735  160.0788 C.ar    1  UNL1        0.0043
      4 C         141.8425  139.7452  160.6013 C.ar    1  UNL1        0.0360
      5 C         140.6463  139.6765  159.6988 C.ar    1  UNL1        0.0043
      6 C         140.8061  139.2361  158.2739 C.ar    1  UNL1        0.0148
      7 N         142.5711  136.5225  154.5736 N.am    1  UNL1       -0.2681
      8 C         142.4113  136.9629  155.9985 C.2     1  UNL1        0.3082
      9 O         142.3407  135.9423  157.0956 O.2     1  UNL1       -0.2522
     10 N         142.3219  138.4239  156.3264 N.am    1  UNL1       -0.2681
     11 H         142.6174  137.1923  153.8536 H       1  UNL1        0.1564
     12 H         142.3682  139.0937  155.6064 H       1  UNL1        0.1564
     13 C         142.8391  132.1395  153.5901 C.ar    1  UNL1        0.0537
     14 C         143.6101  132.6963  154.7499 C.ar    1  UNL1        0.0058
     15 C         143.5208  134.1573  155.0778 C.ar    1  UNL1        0.0149
     16 C         142.6604  135.0614  154.2457 C.ar    1  UNL1        0.0516
     17 C         141.8893  134.5046  153.0859 C.ar    1  UNL1        0.0149
     18 C         141.9787  133.0436  152.7580 C.ar    1  UNL1        0.0058
     19 N         139.7304  127.8525  154.6894 N.3     1  UNL1       -0.2711
     20 C         139.6410  129.3135  155.0173 C.3     1  UNL1        0.0939
     21 C         140.7071  130.2555  154.5416 C.3     1  UNL1        0.1110
     22 N         141.8624  129.7365  153.7379 N.am    1  UNL1       -0.2732
     23 C         142.9284  130.6784  153.2622 C.2     1  UNL1        0.2491
     24 O         144.0837  130.1594  152.4586 O.2     1  UNL1       -0.2699
     25 C         141.9517  128.2754  153.4101 C.3     1  UNL1        0.1110
     26 C         140.8857  127.3335  153.8858 C.3     1  UNL1        0.0939
     27 C         138.6179  126.4967  156.6062 C.3     1  UNL1        0.0173
     28 C         138.6644  126.9106  155.1652 C.3     1  UNL1        0.0577
     29 C         137.6449  126.3824  154.1999 C.3     1  UNL1        0.0173
     30 C         141.6826  140.1857  162.0262 C.ar    1  UNL1        0.1664
     31 N         142.4842  141.3411  162.5485 N.ar    1  UNL1       -0.2118
     32 C         142.3243  141.7815  163.9734 C.ar    1  UNL1        0.1434
     33 N         141.3630  141.0666  164.8761 N.ar    1  UNL1       -0.1987
     34 C         140.5615  139.9112  164.3538 C.ar    1  UNL1        0.2226
     35 N         140.7214  139.4708  162.9289 N.ar    1  UNL1       -0.1945
     36 N         139.6002  139.1963  165.2565 N.pl3   1  UNL1       -0.2764
     37 C         139.2162  137.7752  164.9683 C.3     1  UNL1        0.1051
     38 C         140.0960  138.8346  164.3737 C.3     1  UNL1        0.0242
     39 C         139.9844  140.0628  165.2276 C.3     1  UNL1        0.0242
     40 C         139.0229  139.9025  166.4473 C.3     1  UNL1        0.1051
     41 C         138.0616  139.1876  167.3499 C.3     1  UNL1        0.1619
     42 O         137.6776  137.7665  167.0618 O.3     1  UNL1       -0.3503
     43 C         138.2549  137.0603  165.8710 C.3     1  UNL1        0.1619
     44 C         143.1258  142.9369  164.4957 C.3     1  UNL1        0.0638
     45 C         144.1123  142.7245  165.6055 C.3     1  UNL1        0.0397
     46 C         144.9138  143.8799  166.1278 C.3     1  UNL1        0.1426
     47 O         144.7287  145.2476  165.5403 O.3     1  UNL1       -0.3538
     48 C         143.7422  145.4599  164.4305 C.3     1  UNL1        0.1426
     49 C         142.9407  144.3046  163.9082 C.3     1  UNL1        0.0397
@<TRIPOS>BOND
     1    27    28    1
     2    28    29    1
     3    28    19    1
     4    19    20    1
     5    20    21    1
     6    21    22    1
     7    22    23   am
     8    23    24    2
     9    23    13    1
    10    13    14   ar
    11    14    15   ar
    12    15    16   ar
    13    16     7    1
    14     7     8   am
    15     8     9    2
    16     8    10   am
    17    10     1    1
    18     1     2   ar
    19     2     3   ar
    20     3     4   ar
    21     4    30    1
    22    30    31   ar
    23    31    32   ar
    24    32    44    1
    25    44    45    1
    26    45    46    1
    27    46    47    1
    28    47    48    1
    29    48    49    1
    30    32    33   ar
    31    33    34   ar
    32    34    36    1
    33    36    37    1
    34    37    38    1
    35    38    39    1
    36    39    40    1
    37    40    41    1
    38    41    42    1
    39    42    43    1
    40    34    35   ar
    41     4     5   ar
    42     5     6   ar
    43    16    17   ar
    44    17    18   ar
    45    22    25    1
    46    25    26    1
    47    26    19    1
    48    18    13   ar
    49     6     1   ar
    50    35    30   ar
    51    49    44    1
    52    40    36    1
    53    43    37    1
    54     7    11    1
    55    10    12    1
