@<TRIPOS>MOLECULE
*****
 34 37 0 0 0
SMALL
GASTEIGER

@<TRIPOS>ATOM
      1 N         138.4333  138.7637  167.2329 N.pl3   1  UNL1       -0.3414
      2 C         139.0928  138.6739  165.8887 C.ar    1  UNL1        0.1432
      3 N         138.4887  137.8215  164.8124 N.ar    1  UNL1       -0.2265
      4 C         139.1482  137.7316  163.4682 C.ar    1  UNL1        0.1193
      5 C         140.4118  138.4942  163.2002 C.ar    1  UNL1        0.1005
      6 N         141.0159  139.3466  164.2765 N.ar    1  UNL1       -0.2410
      7 C         140.3564  139.4364  165.6207 C.ar    1  UNL1        0.1123
      8 H         137.6039  138.2632  167.4088 H       1  UNL1        0.1438
      9 H         138.8298  139.3232  167.9393 H       1  UNL1        0.1438
     10 C         141.0713  138.4043  161.8560 C.ar    1  UNL1        0.0192
     11 C         140.2887  138.7140  160.6144 C.ar    1  UNL1        0.0017
     12 C         140.9482  138.6241  159.2702 C.ar    1  UNL1        0.0046
     13 C         142.3903  138.2246  159.1675 C.ar    1  UNL1        0.0536
     14 C         143.1730  137.9150  160.4091 C.ar    1  UNL1        0.0046
     15 C         142.5135  138.0049  161.7533 C.ar    1  UNL1        0.0017
     16 C         143.0498  138.1348  157.8233 C.2     1  UNL1        0.2491
     17 O         143.6076  139.3684  157.1776 O.2     1  UNL1       -0.2699
     18 N         143.1515  136.8113  157.1247 N.am    1  UNL1       -0.2735
     19 C         143.7799  136.5676  155.7846 C.3     1  UNL1        0.0964
     20 C         143.6595  135.1047  155.4753 C.3     1  UNL1        0.0525
     21 C         142.9566  134.4444  156.6242 C.3     1  UNL1        0.1320
     22 O         142.6258  132.9855  156.7344 O.3     1  UNL1       -0.3827
     23 C         142.6427  135.4990  157.6436 C.3     1  UNL1        0.1228
     24 H         142.9376  132.5225  155.9411 H       1  UNL1        0.2104
     25 C         140.9605  140.2889  166.6971 C.ar    1  UNL1        0.0204
     26 C         142.0663  139.7451  167.5523 C.ar    1  UNL1        0.0015
     27 C         142.6704  140.5975  168.6286 C.ar    1  UNL1        0.0039
     28 C         142.1688  141.9938  168.8497 C.ar    1  UNL1        0.0714
     29 C         141.0630  142.5376  167.9944 C.ar    1  UNL1        0.0039
     30 C         140.4588  141.6851  166.9181 C.ar    1  UNL1        0.0015
     31 C         142.7729  142.8461  169.9259 C.3     1  UNL1        0.4186
     32 F         143.3770  143.6985  171.0022 F       1  UNL1       -0.1659
     33 F         141.5533  143.7193  169.9190 F       1  UNL1       -0.1659
     34 F         143.9925  141.9730  169.9329 F       1  UNL1       -0.1659
@<TRIPOS>BOND
     1     1     2    1
     2     2     3   ar
     3     3     4   ar
     4     4     5   ar
     5     5    10    1
     6    10    11   ar
     7    11    12   ar
     8    12    13   ar
     9    13    16    1
    10    16    17    2
    11    16    18   am
    12    18    19    1
    13    19    20    1
    14    20    21    1
    15    21    22    1
    16    21    23    1
    17    13    14   ar
    18    14    15   ar
    19     5     6   ar
    20     6     7   ar
    21     7    25    1
    22    25    26   ar
    23    26    27   ar
    24    27    28   ar
    25    28    31    1
    26    31    32    1
    27    31    33    1
    28    31    34    1
    29    28    29   ar
    30    29    30   ar
    31     7     2   ar
    32    30    25   ar
    33    15    10   ar
    34    23    18    1
    35     1     8    1
    36     1     9    1
    37    22    24    1
@<TRIPOS>MOLECULE
*****
 34 37 0 0 0
SMALL
GASTEIGER

@<TRIPOS>ATOM
      1 N         138.4521  138.7680  167.3420 N.pl3   1  UNL1       -0.3414
      2 C         139.0683  138.7018  165.9760 C.ar    1  UNL1        0.1432
      3 N         138.4358  137.8597  164.9079 N.ar    1  UNL1       -0.2265
      4 C         139.0520  137.7935  163.5419 C.ar    1  UNL1        0.1193
      5 C         140.3007  138.5694  163.2440 C.ar    1  UNL1        0.1005
      6 N         140.9332  139.4115  164.3121 N.ar    1  UNL1       -0.2410
      7 C         140.3170  139.4777  165.6781 C.ar    1  UNL1        0.1123
      8 H         137.6326  138.2588  167.5375 H       1  UNL1        0.1438
      9 H         138.8673  139.3207  168.0430 H       1  UNL1        0.1438
     10 C         140.9168  138.5032  161.8780 C.ar    1  UNL1        0.0192
     11 C         140.1595  139.0136  160.6881 C.ar    1  UNL1        0.0017
     12 C         140.7757  138.9474  159.3221 C.ar    1  UNL1        0.0046
     13 C         142.1492  138.3708  159.1460 C.ar    1  UNL1        0.0536
     14 C         142.9064  137.8603  160.3359 C.ar    1  UNL1        0.0046
     15 C         142.2903  137.9265  161.7019 C.ar    1  UNL1        0.0017
     16 C         142.7653  138.3046  157.7800 C.2     1  UNL1        0.2491
     17 O         142.4762  137.1380  156.8826 O.2     1  UNL1       -0.2699
     18 N         143.6706  139.4049  157.3115 N.am    1  UNL1       -0.2735
     19 C         144.3555  139.4759  155.9788 C.3     1  UNL1        0.0964
     20 C         145.1582  140.7424  155.9370 C.3     1  UNL1        0.0525
     21 C         144.9694  141.4542  157.2439 C.3     1  UNL1        0.1320
     22 O         145.5908  142.7627  157.6330 O.3     1  UNL1       -0.3827
     23 C         144.0501  140.6276  158.0933 C.3     1  UNL1        0.1228
     24 H         146.1423  143.0881  156.9043 H       1  UNL1        0.2104
     25 C         140.9496  140.3198  166.7462 C.ar    1  UNL1        0.0204
     26 C         140.4607  141.7173  166.9872 C.ar    1  UNL1        0.0015
     27 C         141.0932  142.5594  168.0552 C.ar    1  UNL1        0.0039
     28 C         142.2146  142.0040  168.8823 C.ar    1  UNL1        0.0714
     29 C         142.7035  140.6066  168.6413 C.ar    1  UNL1        0.0039
     30 C         142.0710  139.7645  167.5732 C.ar    1  UNL1        0.0015
     31 C         142.8471  142.8462  169.9503 C.3     1  UNL1        0.4186
     32 F         143.4797  143.6883  171.0183 F       1  UNL1       -0.1659
     33 F         144.0645  141.9703  169.9199 F       1  UNL1       -0.1659
     34 F         141.6298  143.7220  169.9807 F       1  UNL1       -0.1659
@<TRIPOS>BOND
     1     1     2    1
     2     2     3   ar
     3     3     4   ar
     4     4     5   ar
     5     5    10    1
     6    10    11   ar
     7    11    12   ar
     8    12    13   ar
     9    13    16    1
    10    16    17    2
    11    16    18   am
    12    18    19    1
    13    19    20    1
    14    20    21    1
    15    21    22    1
    16    21    23    1
    17    13    14   ar
    18    14    15   ar
    19     5     6   ar
    20     6     7   ar
    21     7    25    1
    22    25    26   ar
    23    26    27   ar
    24    27    28   ar
    25    28    31    1
    26    31    32    1
    27    31    33    1
    28    31    34    1
    29    28    29   ar
    30    29    30   ar
    31     7     2   ar
    32    30    25   ar
    33    15    10   ar
    34    23    18    1
    35     1     8    1
    36     1     9    1
    37    22    24    1
@<TRIPOS>MOLECULE
*****
 34 37 0 0 0
SMALL
GASTEIGER

@<TRIPOS>ATOM
      1 N         136.9828  142.7191  164.3089 N.pl3   1  UNL1       -0.3414
      2 C         137.9082  142.1603  163.2690 C.ar    1  UNL1        0.1432
      3 N         137.6929  142.4859  161.8207 N.ar    1  UNL1       -0.2265
      4 C         138.6183  141.9271  160.7808 C.ar    1  UNL1        0.1193
      5 C         139.7589  141.0427  161.1891 C.ar    1  UNL1        0.1005
      6 N         139.9742  140.7172  162.6375 N.ar    1  UNL1       -0.2410
      7 C         139.0488  141.2760  163.6774 C.ar    1  UNL1        0.1123
      8 H         136.2342  143.2995  164.0409 H       1  UNL1        0.1438
      9 H         137.1241  142.5054  165.2595 H       1  UNL1        0.1438
     10 C         140.6843  140.4839  160.1492 C.ar    1  UNL1        0.0192
     11 C         140.5428  140.9035  158.7161 C.ar    1  UNL1        0.0017
     12 C         141.4682  140.3447  157.6762 C.ar    1  UNL1        0.0046
     13 C         142.5350  139.3663  158.0694 C.ar    1  UNL1        0.0536
     14 C         142.6765  138.9468  159.5025 C.ar    1  UNL1        0.0046
     15 C         141.7511  139.5056  160.5424 C.ar    1  UNL1        0.0017
     16 C         143.4604  138.8076  157.0294 C.2     1  UNL1        0.2491
     17 O         144.7116  139.5490  156.6626 O.2     1  UNL1       -0.2699
     18 N         143.1345  137.5073  156.3563 N.am    1  UNL1       -0.2735
     19 C         143.9596  136.8283  155.3036 C.3     1  UNL1        0.0964
     20 C         143.2613  135.5590  154.9144 C.3     1  UNL1        0.0525
     21 C         142.0046  135.4536  155.7266 C.3     1  UNL1        0.1320
     22 O         141.0024  134.3397  155.6595 O.3     1  UNL1       -0.3827
     23 C         141.9263  136.6576  156.6178 C.3     1  UNL1        0.1228
     24 H         141.2894  133.6856  155.0032 H       1  UNL1        0.2104
     25 C         139.2642  140.9504  165.1258 C.ar    1  UNL1        0.0204
     26 C         138.5850  139.7603  165.7360 C.ar    1  UNL1        0.0015
     27 C         138.8003  139.4347  167.1842 C.ar    1  UNL1        0.0039
     28 C         139.6948  140.2992  168.0224 C.ar    1  UNL1        0.0714
     29 C         140.3740  141.4893  167.4122 C.ar    1  UNL1        0.0039
     30 C         140.1587  141.8149  165.9638 C.ar    1  UNL1        0.0015
     31 C         139.9101  139.9736  169.4707 C.3     1  UNL1        0.4186
     32 F         140.1254  139.6480  170.9190 F       1  UNL1       -0.1659
     33 F         141.3195  139.5591  169.1680 F       1  UNL1       -0.1659
     34 F         138.5007  140.3882  169.7734 F       1  UNL1       -0.1659
@<TRIPOS>BOND
     1     1     2    1
     2     2     3   ar
     3     3     4   ar
     4     4     5   ar
     5     5    10    1
     6    10    11   ar
     7    11    12   ar
     8    12    13   ar
     9    13    16    1
    10    16    17    2
    11    16    18   am
    12    18    19    1
    13    19    20    1
    14    20    21    1
    15    21    22    1
    16    21    23    1
    17    13    14   ar
    18    14    15   ar
    19     5     6   ar
    20     6     7   ar
    21     7    25    1
    22    25    26   ar
    23    26    27   ar
    24    27    28   ar
    25    28    31    1
    26    31    32    1
    27    31    33    1
    28    31    34    1
    29    28    29   ar
    30    29    30   ar
    31     7     2   ar
    32    30    25   ar
    33    15    10   ar
    34    23    18    1
    35     1     8    1
    36     1     9    1
    37    22    24    1
@<TRIPOS>MOLECULE
*****
 34 37 0 0 0
SMALL
GASTEIGER

@<TRIPOS>ATOM
      1 N         144.6193  137.1380  155.0745 N.pl3   1  UNL1       -0.3414
      2 C         143.7384  137.8058  156.0883 C.ar    1  UNL1        0.1432
      3 N         143.9112  139.2657  156.3865 N.ar    1  UNL1       -0.2265
      4 C         143.0303  139.9336  157.4004 C.ar    1  UNL1        0.1193
      5 C         141.9765  139.1416  158.1161 C.ar    1  UNL1        0.1005
      6 N         141.8036  137.6818  157.8179 N.ar    1  UNL1       -0.2410
      7 C         142.6846  137.0139  156.8040 C.ar    1  UNL1        0.1123
      8 H         145.3109  137.6578  154.6047 H       1  UNL1        0.1438
      9 H         144.5058  136.1798  154.8788 H       1  UNL1        0.1438
     10 C         141.0956  139.8095  159.1299 C.ar    1  UNL1        0.0192
     11 C         140.1534  140.8965  158.7049 C.ar    1  UNL1        0.0017
     12 C         139.2725  141.5644  159.7187 C.ar    1  UNL1        0.0046
     13 C         139.3337  141.1453  161.1576 C.ar    1  UNL1        0.0536
     14 C         140.2759  140.0583  161.5827 C.ar    1  UNL1        0.0046
     15 C         141.1568  139.3904  160.5688 C.ar    1  UNL1        0.0017
     16 C         138.4528  141.8131  162.1715 C.2     1  UNL1        0.2491
     17 O         137.0720  141.2866  162.4282 O.2     1  UNL1       -0.2699
     18 N         138.9528  143.0076  162.9287 N.am    1  UNL1       -0.2735
     19 C         138.1902  143.7757  163.9672 C.3     1  UNL1        0.0964
     20 C         139.0692  144.8865  164.4607 C.3     1  UNL1        0.0525
     21 C         140.3751  144.8049  163.7271 C.3     1  UNL1        0.1320
     22 O         141.5471  145.7232  163.9085 O.3     1  UNL1       -0.3827
     23 C         140.3032  143.6437  162.7803 C.3     1  UNL1        0.1228
     24 H         141.3348  146.3894  164.5808 H       1  UNL1        0.2104
     25 C         142.5116  135.5540  156.5059 C.ar    1  UNL1        0.0204
     26 C         143.2926  134.5330  157.2790 C.ar    1  UNL1        0.0015
     27 C         143.1198  133.0732  156.9809 C.ar    1  UNL1        0.0039
     28 C         142.1658  132.6342  155.9097 C.ar    1  UNL1        0.0714
     29 C         141.3849  133.6552  155.1366 C.ar    1  UNL1        0.0039
     30 C         141.5578  135.1151  155.4347 C.ar    1  UNL1        0.0015
     31 C         141.9930  131.1744  155.6116 C.3     1  UNL1        0.4186
     32 F         141.8201  129.7145  155.3135 F       1  UNL1       -0.1659
     33 F         140.6197  131.4469  155.0732 F       1  UNL1       -0.1659
     34 F         143.3662  130.9018  156.1500 F       1  UNL1       -0.1659
@<TRIPOS>BOND
     1     1     2    1
     2     2     3   ar
     3     3     4   ar
     4     4     5   ar
     5     5    10    1
     6    10    11   ar
     7    11    12   ar
     8    12    13   ar
     9    13    16    1
    10    16    17    2
    11    16    18   am
    12    18    19    1
    13    19    20    1
    14    20    21    1
    15    21    22    1
    16    21    23    1
    17    13    14   ar
    18    14    15   ar
    19     5     6   ar
    20     6     7   ar
    21     7    25    1
    22    25    26   ar
    23    26    27   ar
    24    27    28   ar
    25    28    31    1
    26    31    32    1
    27    31    33    1
    28    31    34    1
    29    28    29   ar
    30    29    30   ar
    31     7     2   ar
    32    30    25   ar
    33    15    10   ar
    34    23    18    1
    35     1     8    1
    36     1     9    1
    37    22    24    1
@<TRIPOS>MOLECULE
*****
 34 37 0 0 0
SMALL
GASTEIGER

@<TRIPOS>ATOM
      1 N         139.0077  139.7202  170.3403 N.pl3   1  UNL1       -0.3414
      2 C         138.9161  139.6994  168.8432 C.ar    1  UNL1        0.1432
      3 N         137.8359  138.9068  168.1688 N.ar    1  UNL1       -0.2265
      4 C         137.7443  138.8860  166.6718 C.ar    1  UNL1        0.1193
      5 C         138.7329  139.6578  165.8491 C.ar    1  UNL1        0.1005
      6 N         139.8132  140.4504  166.5235 N.ar    1  UNL1       -0.2410
      7 C         139.9048  140.4712  168.0205 C.ar    1  UNL1        0.1123
      8 H         138.3588  139.2136  170.8802 H       1  UNL1        0.1438
      9 H         139.7167  140.2404  170.7829 H       1  UNL1        0.1438
     10 C         138.6414  139.6370  164.3520 C.ar    1  UNL1        0.0192
     11 C         138.6724  138.3300  163.6168 C.ar    1  UNL1        0.0017
     12 C         138.5808  138.3092  162.1198 C.ar    1  UNL1        0.0046
     13 C         138.4582  139.5954  161.3579 C.ar    1  UNL1        0.0536
     14 C         138.4271  140.9025  162.0931 C.ar    1  UNL1        0.0046
     15 C         138.5187  140.9233  163.5902 C.ar    1  UNL1        0.0017
     16 C         138.3666  139.5747  159.8609 C.2     1  UNL1        0.2491
     17 O         137.0707  139.9099  159.1840 O.2     1  UNL1       -0.2699
     18 N         139.5709  139.2186  159.0407 N.am    1  UNL1       -0.2735
     19 C         139.6307  139.1562  157.5431 C.3     1  UNL1        0.0964
     20 C         141.0238  138.7614  157.1509 C.3     1  UNL1        0.0525
     21 C         141.8249  138.5798  158.4060 C.3     1  UNL1        0.1320
     22 O         143.2700  138.1850  158.4802 O.3     1  UNL1       -0.3827
     23 C         140.9270  138.8624  159.5739 C.3     1  UNL1        0.1228
     24 H         143.6180  138.0619  157.5832 H       1  UNL1        0.2104
     25 C         140.9851  141.2639  168.6949 C.ar    1  UNL1        0.0204
     26 C         140.6819  142.6238  169.2504 C.ar    1  UNL1        0.0015
     27 C         141.7621  143.4165  169.9247 C.ar    1  UNL1        0.0039
     28 C         143.1456  142.8492  170.0436 C.ar    1  UNL1        0.0714
     29 C         143.4489  141.4892  169.4881 C.ar    1  UNL1        0.0039
     30 C         142.3685  140.6966  168.8137 C.ar    1  UNL1        0.0015
     31 C         144.2258  143.6418  170.7180 C.3     1  UNL1        0.4186
     32 F         145.3061  144.4345  171.3923 F       1  UNL1       -0.1659
     33 F         145.2627  142.7388  170.1184 F       1  UNL1       -0.1659
     34 F         143.1890  144.5448  171.3175 F       1  UNL1       -0.1659
@<TRIPOS>BOND
     1     1     2    1
     2     2     3   ar
     3     3     4   ar
     4     4     5   ar
     5     5    10    1
     6    10    11   ar
     7    11    12   ar
     8    12    13   ar
     9    13    16    1
    10    16    17    2
    11    16    18   am
    12    18    19    1
    13    19    20    1
    14    20    21    1
    15    21    22    1
    16    21    23    1
    17    13    14   ar
    18    14    15   ar
    19     5     6   ar
    20     6     7   ar
    21     7    25    1
    22    25    26   ar
    23    26    27   ar
    24    27    28   ar
    25    28    31    1
    26    31    32    1
    27    31    33    1
    28    31    34    1
    29    28    29   ar
    30    29    30   ar
    31     7     2   ar
    32    30    25   ar
    33    15    10   ar
    34    23    18    1
    35     1     8    1
    36     1     9    1
    37    22    24    1
@<TRIPOS>MOLECULE
*****
 34 37 0 0 0
SMALL
GASTEIGER

@<TRIPOS>ATOM
      1 N         144.0387  145.0097  164.5226 N.pl3   1  UNL1       -0.3414
      2 C         143.8131  143.9207  163.5162 C.ar    1  UNL1        0.1432
      3 N         144.4891  143.9837  162.1787 N.ar    1  UNL1       -0.2265
      4 C         144.2635  142.8946  161.1722 C.ar    1  UNL1        0.1193
      5 C         143.3619  141.7425  161.5032 C.ar    1  UNL1        0.1005
      6 N         142.6859  141.6794  162.8407 N.ar    1  UNL1       -0.2410
      7 C         142.9115  142.7685  163.8472 C.ar    1  UNL1        0.1123
      8 H         144.6305  145.7659  164.3054 H       1  UNL1        0.1438
      9 H         143.5950  144.9684  165.4005 H       1  UNL1        0.1438
     10 C         143.1363  140.6534  160.4967 C.ar    1  UNL1        0.0192
     11 C         143.6309  140.8178  159.0902 C.ar    1  UNL1        0.0017
     12 C         143.4053  139.7287  158.0837 C.ar    1  UNL1        0.0046
     13 C         142.6851  138.4752  158.4838 C.ar    1  UNL1        0.0536
     14 C         142.1906  138.3108  159.8903 C.ar    1  UNL1        0.0046
     15 C         142.4162  139.3999  160.8968 C.ar    1  UNL1        0.0017
     16 C         142.4595  137.3861  157.4773 C.2     1  UNL1        0.2491
     17 O         143.4759  136.2955  157.3119 O.2     1  UNL1       -0.2699
     18 N         141.2176  137.3877  156.6362 N.am    1  UNL1       -0.2735
     19 C         140.8569  136.3705  155.5945 C.3     1  UNL1        0.0964
     20 C         139.5345  136.7609  155.0036 C.3     1  UNL1        0.0525
     21 C         139.0780  138.0194  155.6802 C.3     1  UNL1        0.1320
     22 O         137.8048  138.7603  155.3975 O.3     1  UNL1       -0.3827
     23 C         140.1181  138.4068  156.6892 C.3     1  UNL1        0.1228
     24 H         137.3105  138.2999  154.7014 H       1  UNL1        0.2104
     25 C         142.2353  142.7054  165.1847 C.ar    1  UNL1        0.0204
     26 C         140.8086  143.1466  165.3254 C.ar    1  UNL1        0.0015
     27 C         140.1325  143.0835  166.6629 C.ar    1  UNL1        0.0039
     28 C         140.8831  142.5793  167.8598 C.ar    1  UNL1        0.0714
     29 C         142.3099  142.1382  167.7191 C.ar    1  UNL1        0.0039
     30 C         142.9860  142.2013  166.3815 C.ar    1  UNL1        0.0015
     31 C         140.2070  142.5162  169.1972 C.3     1  UNL1        0.4186
     32 F         139.5309  142.4532  170.5347 F       1  UNL1       -0.1659
     33 F         140.6492  143.9200  169.4869 F       1  UNL1       -0.1659
     34 F         139.7648  141.1125  168.9075 F       1  UNL1       -0.1659
@<TRIPOS>BOND
     1     1     2    1
     2     2     3   ar
     3     3     4   ar
     4     4     5   ar
     5     5    10    1
     6    10    11   ar
     7    11    12   ar
     8    12    13   ar
     9    13    16    1
    10    16    17    2
    11    16    18   am
    12    18    19    1
    13    19    20    1
    14    20    21    1
    15    21    22    1
    16    21    23    1
    17    13    14   ar
    18    14    15   ar
    19     5     6   ar
    20     6     7   ar
    21     7    25    1
    22    25    26   ar
    23    26    27   ar
    24    27    28   ar
    25    28    31    1
    26    31    32    1
    27    31    33    1
    28    31    34    1
    29    28    29   ar
    30    29    30   ar
    31     7     2   ar
    32    30    25   ar
    33    15    10   ar
    34    23    18    1
    35     1     8    1
    36     1     9    1
    37    22    24    1
@<TRIPOS>MOLECULE
*****
 34 37 0 0 0
SMALL
GASTEIGER

@<TRIPOS>ATOM
      1 N         138.5325  144.5768  165.2256 N.pl3   1  UNL1       -0.3414
      2 C         139.2784  143.8980  164.1153 C.ar    1  UNL1        0.1432
      3 N         139.3080  144.5114  162.7469 N.ar    1  UNL1       -0.2265
      4 C         140.0539  143.8326  161.6366 C.ar    1  UNL1        0.1193
      5 C         140.7703  142.5402  161.8947 C.ar    1  UNL1        0.1005
      6 N         140.7407  141.9268  163.2632 N.ar    1  UNL1       -0.2410
      7 C         139.9948  142.6056  164.3735 C.ar    1  UNL1        0.1123
      8 H         138.0624  145.4251  165.0562 H       1  UNL1        0.1438
      9 H         138.5131  144.1742  166.1238 H       1  UNL1        0.1438
     10 C         141.5162  141.8614  160.7844 C.ar    1  UNL1        0.0192
     11 C         141.0044  141.9439  159.3769 C.ar    1  UNL1        0.0017
     12 C         141.7503  141.2651  158.2666 C.ar    1  UNL1        0.0046
     13 C         143.0080  140.5037  158.5638 C.ar    1  UNL1        0.0536
     14 C         143.5198  140.4211  159.9713 C.ar    1  UNL1        0.0046
     15 C         142.7739  141.1000  161.0816 C.ar    1  UNL1        0.0017
     16 C         143.7539  139.8248  157.4535 C.2     1  UNL1        0.2491
     17 O         143.4421  138.4004  157.1017 O.2     1  UNL1       -0.2699
     18 N         144.8116  140.5703  156.6950 N.am    1  UNL1       -0.2735
     19 C         145.6361  140.0261  155.5663 C.3     1  UNL1        0.0964
     20 C         146.5647  141.1105  155.1057 C.3     1  UNL1        0.0525
     21 C         146.3141  142.3249  155.9499 C.3     1  UNL1        0.1320
     22 O         147.0225  143.6417  155.8325 O.3     1  UNL1       -0.3827
     23 C         145.2307  141.9910  156.9321 C.3     1  UNL1        0.1228
     24 H         147.6778  143.5938  155.1190 H       1  UNL1        0.2104
     25 C         139.9652  141.9921  165.7420 C.ar    1  UNL1        0.0204
     26 C         139.2665  140.6831  165.9621 C.ar    1  UNL1        0.0015
     27 C         139.2369  140.0696  167.3305 C.ar    1  UNL1        0.0039
     28 C         139.9061  140.7650  168.4789 C.ar    1  UNL1        0.0714
     29 C         140.6048  142.0739  168.2588 C.ar    1  UNL1        0.0039
     30 C         140.6343  142.6875  166.8903 C.ar    1  UNL1        0.0015
     31 C         139.8765  140.1514  169.8473 C.3     1  UNL1        0.4186
     32 F         139.8469  139.5379  171.2158 F       1  UNL1       -0.1659
     33 F         138.5330  140.7705  170.0959 F       1  UNL1       -0.1659
     34 F         141.2199  139.5324  169.5988 F       1  UNL1       -0.1659
@<TRIPOS>BOND
     1     1     2    1
     2     2     3   ar
     3     3     4   ar
     4     4     5   ar
     5     5    10    1
     6    10    11   ar
     7    11    12   ar
     8    12    13   ar
     9    13    16    1
    10    16    17    2
    11    16    18   am
    12    18    19    1
    13    19    20    1
    14    20    21    1
    15    21    22    1
    16    21    23    1
    17    13    14   ar
    18    14    15   ar
    19     5     6   ar
    20     6     7   ar
    21     7    25    1
    22    25    26   ar
    23    26    27   ar
    24    27    28   ar
    25    28    31    1
    26    31    32    1
    27    31    33    1
    28    31    34    1
    29    28    29   ar
    30    29    30   ar
    31     7     2   ar
    32    30    25   ar
    33    15    10   ar
    34    23    18    1
    35     1     8    1
    36     1     9    1
    37    22    24    1
@<TRIPOS>MOLECULE
*****
 34 37 0 0 0
SMALL
GASTEIGER

@<TRIPOS>ATOM
      1 N         143.8376  144.7985  164.1687 N.pl3   1  UNL1       -0.3414
      2 C         143.3212  143.8396  163.1372 C.ar    1  UNL1        0.1432
      3 N         143.8130  143.9232  161.7226 N.ar    1  UNL1       -0.2265
      4 C         143.2966  142.9643  160.6911 C.ar    1  UNL1        0.1193
      5 C         142.2884  141.9219  161.0743 C.ar    1  UNL1        0.1005
      6 N         141.7967  141.8382  162.4889 N.ar    1  UNL1       -0.2410
      7 C         142.3131  142.7971  163.5203 C.ar    1  UNL1        0.1123
      8 H         144.4993  145.4827  163.9172 H       1  UNL1        0.1438
      9 H         143.5148  144.7436  165.0971 H       1  UNL1        0.1438
     10 C         141.7721  140.9630  160.0428 C.ar    1  UNL1        0.0192
     11 C         142.1372  141.1457  158.5995 C.ar    1  UNL1        0.0017
     12 C         141.6208  140.1868  157.5680 C.ar    1  UNL1        0.0046
     13 C         140.7393  139.0452  157.9799 C.ar    1  UNL1        0.0536
     14 C         140.3741  138.8625  159.4232 C.ar    1  UNL1        0.0046
     15 C         140.8905  139.8214  160.4547 C.ar    1  UNL1        0.0017
     16 C         140.2229  138.0864  156.9484 C.2     1  UNL1        0.2491
     17 O         138.8587  138.2840  156.3569 O.2     1  UNL1       -0.2699
     18 N         141.0707  136.9298  156.5085 N.am    1  UNL1       -0.2735
     19 C         140.6907  135.8945  155.4918 C.3     1  UNL1        0.0964
     20 C         141.8326  134.9303  155.3629 C.3     1  UNL1        0.0525
     21 C         142.9183  135.3698  156.2999 C.3     1  UNL1        0.1320
     22 O         144.2424  134.6925  156.4948 O.3     1  UNL1       -0.3827
     23 C         142.4475  136.6055  157.0079 C.3     1  UNL1        0.1228
     24 H         144.2961  133.9152  155.9169 H       1  UNL1        0.2104
     25 C         141.8213  142.7135  164.9350 C.ar    1  UNL1        0.0204
     26 C         142.6637  142.0500  165.9839 C.ar    1  UNL1        0.0015
     27 C         142.1720  141.9663  167.3985 C.ar    1  UNL1        0.0039
     28 C         140.8377  142.5461  167.7643 C.ar    1  UNL1        0.0714
     29 C         139.9953  143.2096  166.7154 C.ar    1  UNL1        0.0039
     30 C         140.4871  143.2933  165.3007 C.ar    1  UNL1        0.0015
     31 C         140.3460  142.4624  169.1789 C.3     1  UNL1        0.4186
     32 F         139.8543  142.3788  170.5935 F       1  UNL1       -0.1659
     33 F         139.6160  141.1940  168.8501 F       1  UNL1       -0.1659
     34 F         141.0760  143.7308  169.5077 F       1  UNL1       -0.1659
@<TRIPOS>BOND
     1     1     2    1
     2     2     3   ar
     3     3     4   ar
     4     4     5   ar
     5     5    10    1
     6    10    11   ar
     7    11    12   ar
     8    12    13   ar
     9    13    16    1
    10    16    17    2
    11    16    18   am
    12    18    19    1
    13    19    20    1
    14    20    21    1
    15    21    22    1
    16    21    23    1
    17    13    14   ar
    18    14    15   ar
    19     5     6   ar
    20     6     7   ar
    21     7    25    1
    22    25    26   ar
    23    26    27   ar
    24    27    28   ar
    25    28    31    1
    26    31    32    1
    27    31    33    1
    28    31    34    1
    29    28    29   ar
    30    29    30   ar
    31     7     2   ar
    32    30    25   ar
    33    15    10   ar
    34    23    18    1
    35     1     8    1
    36     1     9    1
    37    22    24    1
@<TRIPOS>MOLECULE
*****
 34 37 0 0 0
SMALL
GASTEIGER

@<TRIPOS>ATOM
      1 N         144.2147  137.3524  154.7441 N.pl3   1  UNL1       -0.3414
      2 C         143.7355  137.8873  156.0610 C.ar    1  UNL1        0.1432
      3 N         144.0285  139.3074  156.4450 N.ar    1  UNL1       -0.2265
      4 C         143.5494  139.8423  157.7619 C.ar    1  UNL1        0.1193
      5 C         142.7772  138.9572  158.6948 C.ar    1  UNL1        0.1005
      6 N         142.4842  137.5371  158.3107 N.ar    1  UNL1       -0.2410
      7 C         142.9634  137.0022  156.9938 C.ar    1  UNL1        0.1123
      8 H         144.7215  137.9334  154.1318 H       1  UNL1        0.1438
      9 H         144.0224  136.4203  154.4920 H       1  UNL1        0.1438
     10 C         142.2980  139.4921  160.0117 C.ar    1  UNL1        0.0192
     11 C         143.0767  140.5651  160.7134 C.ar    1  UNL1        0.0017
     12 C         142.5975  141.1000  162.0303 C.ar    1  UNL1        0.0046
     13 C         141.3397  140.5620  162.6455 C.ar    1  UNL1        0.0536
     14 C         140.5611  139.4891  161.9438 C.ar    1  UNL1        0.0046
     15 C         141.0403  138.9541  160.6269 C.ar    1  UNL1        0.0017
     16 C         140.8606  141.0969  163.9624 C.2     1  UNL1        0.2491
     17 O         141.4044  140.5355  165.2426 O.2     1  UNL1       -0.2699
     18 N         139.8376  142.1934  163.9991 N.am    1  UNL1       -0.2735
     19 C         139.2665  142.8254  165.2338 C.3     1  UNL1        0.0964
     20 C         138.2820  143.8730  164.8053 C.3     1  UNL1        0.0525
     21 C         138.2447  143.8883  163.3058 C.3     1  UNL1        0.1320
     22 O         137.3952  144.7843  162.4541 O.3     1  UNL1       -0.3827
     23 C         139.2061  142.8503  162.8076 C.3     1  UNL1        0.1228
     24 H         136.8639  145.3628  163.0233 H       1  UNL1        0.2104
     25 C         142.6703  135.5821  156.6098 C.ar    1  UNL1        0.0204
     26 C         143.4590  134.4619  157.2207 C.ar    1  UNL1        0.0015
     27 C         143.1660  133.0419  156.8368 C.ar    1  UNL1        0.0039
     28 C         142.0843  132.7418  155.8418 C.ar    1  UNL1        0.0714
     29 C         141.2956  133.8620  155.2308 C.ar    1  UNL1        0.0039
     30 C         141.5886  135.2821  155.6149 C.ar    1  UNL1        0.0015
     31 C         141.7913  131.3218  155.4578 C.3     1  UNL1        0.4186
     32 F         141.4983  129.9017  155.0738 F       1  UNL1       -0.1659
     33 F         142.5184  130.8416  156.6788 F       1  UNL1       -0.1659
     34 F         141.0642  131.8019  154.2369 F       1  UNL1       -0.1659
@<TRIPOS>BOND
     1     1     2    1
     2     2     3   ar
     3     3     4   ar
     4     4     5   ar
     5     5    10    1
     6    10    11   ar
     7    11    12   ar
     8    12    13   ar
     9    13    16    1
    10    16    17    2
    11    16    18   am
    12    18    19    1
    13    19    20    1
    14    20    21    1
    15    21    22    1
    16    21    23    1
    17    13    14   ar
    18    14    15   ar
    19     5     6   ar
    20     6     7   ar
    21     7    25    1
    22    25    26   ar
    23    26    27   ar
    24    27    28   ar
    25    28    31    1
    26    31    32    1
    27    31    33    1
    28    31    34    1
    29    28    29   ar
    30    29    30   ar
    31     7     2   ar
    32    30    25   ar
    33    15    10   ar
    34    23    18    1
    35     1     8    1
    36     1     9    1
    37    22    24    1
