@<TRIPOS>MOLECULE
*****
 29 32 0 0 0
SMALL
GASTEIGER

@<TRIPOS>ATOM
      1 C         142.8831  143.2245  159.3892 C.ar    1  UNL1        0.1725
      2 C         142.6656  142.1577  158.3573 C.ar    1  UNL1        0.0401
      3 C         143.1142  140.7518  158.6260 C.ar    1  UNL1        0.0035
      4 C         143.7803  140.4126  159.9264 C.ar    1  UNL1        0.0078
      5 C         143.9978  141.4793  160.9582 C.ar    1  UNL1        0.0905
      6 C         143.5493  142.8853  160.6896 C.ar    1  UNL1        0.1771
      7 C         144.6640  141.1402  162.2588 C.2     1  UNL1        0.2521
      8 O         145.9689  141.7839  162.6233 O.2     1  UNL1       -0.2698
      9 N         144.0253  140.1573  163.1946 N.am    1  UNL1       -0.2760
     10 C         144.5705  139.7219  164.5225 C.3     1  UNL1        0.0938
     11 C         143.6114  138.7327  165.1155 C.3     1  UNL1        0.0233
     12 C         142.4734  138.5568  164.1542 C.3     1  UNL1        0.0233
     13 C         142.7292  139.4373  162.9671 C.3     1  UNL1        0.0938
     14 C         141.9574  145.0169  157.7521 C.3     1  UNL1        0.2526
     15 O         142.4345  144.6304  159.1206 O.3     1  UNL1       -0.4684
     16 O         143.7668  143.9520  161.7215 O.3     1  UNL1       -0.4658
     17 C         142.6525  144.3365  162.6492 C.3     1  UNL1        0.2515
     18 C         142.3102  143.4571  163.8152 C.ar    1  UNL1        0.1097
     19 C         143.1161  143.3048  165.0712 C.ar    1  UNL1        0.0553
     20 S         142.4059  142.3292  165.9621 S.2     1  UNL1       -0.0662
     21 C         141.1611  141.8785  165.2568 C.ar    1  UNL1        0.1105
     22 N         141.1020  142.5756  163.9299 N.ar    1  UNL1       -0.2390
     23 C         140.1526  140.9021  165.7855 C.ar    1  UNL1        0.0239
     24 C         139.2103  140.2132  164.8436 C.ar    1  UNL1        0.0029
     25 C         138.2017  139.2368  165.3723 C.ar    1  UNL1        0.0115
     26 C         138.1355  138.9494  166.8429 C.ar    1  UNL1        0.0577
     27 CL        137.1269  137.9731  167.3716 Cl      1  UNL1       -0.0822
     28 C         139.0778  139.6384  167.7849 C.ar    1  UNL1        0.0115
     29 C         140.0863  140.6147  167.2562 C.ar    1  UNL1        0.0029
@<TRIPOS>BOND
     1    14    15    1
     2    15     1    1
     3     1     2   ar
     4     2     3   ar
     5     3     4   ar
     6     4     5   ar
     7     5     7    1
     8     7     8    2
     9     7     9   am
    10     9    10    1
    11    10    11    1
    12    11    12    1
    13    12    13    1
    14     5     6   ar
    15     6    16    1
    16    16    17    1
    17    17    18    1
    18    18    19   ar
    19    19    20   ar
    20    20    21   ar
    21    21    23    1
    22    23    24   ar
    23    24    25   ar
    24    25    26   ar
    25    26    27    1
    26    26    28   ar
    27    28    29   ar
    28    21    22   ar
    29     6     1   ar
    30    22    18   ar
    31    13     9    1
    32    29    23   ar
@<TRIPOS>MOLECULE
*****
 29 32 0 0 0
SMALL
GASTEIGER

@<TRIPOS>ATOM
      1 C         144.3490  142.6691  162.8390 C.ar    1  UNL1        0.1725
      2 C         145.3859  142.0008  163.6924 C.ar    1  UNL1        0.0401
      3 C         145.3294  140.5191  163.9191 C.ar    1  UNL1        0.0035
      4 C         144.2360  139.7057  163.2924 C.ar    1  UNL1        0.0078
      5 C         143.1991  140.3739  162.4391 C.ar    1  UNL1        0.0905
      6 C         143.2556  141.8556  162.2123 C.ar    1  UNL1        0.1771
      7 C         142.1057  139.5605  161.8123 C.2     1  UNL1        0.2521
      8 O         142.0099  139.4568  160.3190 O.2     1  UNL1       -0.2698
      9 N         141.1081  138.8508  162.6790 N.am    1  UNL1       -0.2760
     10 C         139.9662  138.0052  162.1981 C.3     1  UNL1        0.0938
     11 C         139.2296  137.4939  163.4005 C.3     1  UNL1        0.0233
     12 C         139.9162  138.0234  164.6246 C.3     1  UNL1        0.0233
     13 C         141.0771  138.8620  164.1786 C.3     1  UNL1        0.0938
     14 C         143.7567  145.0845  163.5906 C.3     1  UNL1        0.2526
     15 O         144.4055  144.1508  162.6122 O.3     1  UNL1       -0.4684
     16 O         142.2187  142.5238  161.3589 O.3     1  UNL1       -0.4658
     17 C         141.0881  143.2723  162.0004 C.3     1  UNL1        0.2515
     18 C         140.4125  142.7122  163.2169 C.ar    1  UNL1        0.1097
     19 C         139.0294  142.1341  163.2696 C.ar    1  UNL1        0.0553
     20 S         138.7634  141.6965  164.6794 S.2     1  UNL1       -0.0662
     21 C         139.9821  142.0040  165.4981 C.ar    1  UNL1        0.1105
     22 N         141.0013  142.6318  164.5941 N.ar    1  UNL1       -0.2390
     23 C         140.1518  141.7317  166.9633 C.ar    1  UNL1        0.0239
     24 C         139.8296  140.3751  167.5163 C.ar    1  UNL1        0.0029
     25 C         139.9993  140.1027  168.9815 C.ar    1  UNL1        0.0115
     26 C         140.4913  141.1869  169.8938 C.ar    1  UNL1        0.0577
     27 CL        140.6610  140.9146  171.3591 Cl      1  UNL1       -0.0822
     28 C         140.8135  142.5436  169.3409 C.ar    1  UNL1        0.0115
     29 C         140.6438  142.8159  167.8757 C.ar    1  UNL1        0.0029
@<TRIPOS>BOND
     1    14    15    1
     2    15     1    1
     3     1     2   ar
     4     2     3   ar
     5     3     4   ar
     6     4     5   ar
     7     5     7    1
     8     7     8    2
     9     7     9   am
    10     9    10    1
    11    10    11    1
    12    11    12    1
    13    12    13    1
    14     5     6   ar
    15     6    16    1
    16    16    17    1
    17    17    18    1
    18    18    19   ar
    19    19    20   ar
    20    20    21   ar
    21    21    23    1
    22    23    24   ar
    23    24    25   ar
    24    25    26   ar
    25    26    27    1
    26    26    28   ar
    27    28    29   ar
    28    21    22   ar
    29     6     1   ar
    30    22    18   ar
    31    13     9    1
    32    29    23   ar
@<TRIPOS>MOLECULE
*****
 29 32 0 0 0
SMALL
GASTEIGER

@<TRIPOS>ATOM
      1 C         140.6290  138.9648  161.4047 C.ar    1  UNL1        0.1725
      2 C         139.7729  137.8998  162.0233 C.ar    1  UNL1        0.0401
      3 C         138.4839  138.2699  162.6952 C.ar    1  UNL1        0.0035
      4 C         138.0510  139.7050  162.7485 C.ar    1  UNL1        0.0078
      5 C         138.9071  140.7701  162.1299 C.ar    1  UNL1        0.0905
      6 C         140.1961  140.3999  161.4580 C.ar    1  UNL1        0.1771
      7 C         138.4742  142.2053  162.1832 C.2     1  UNL1        0.2521
      8 O         137.7662  142.8191  161.0119 O.2     1  UNL1       -0.2698
      9 N         138.7494  143.0267  163.4077 N.am    1  UNL1       -0.2760
     10 C         138.3782  144.4666  163.6053 C.3     1  UNL1        0.0938
     11 C         138.8435  144.8822  164.9694 C.3     1  UNL1        0.0233
     12 C         139.5022  143.6992  165.6149 C.3     1  UNL1        0.0233
     13 C         139.4440  142.5525  164.6498 C.3     1  UNL1        0.0938
     14 C         143.0494  138.0304  161.5398 C.3     1  UNL1        0.2526
     15 O         141.9180  138.5947  160.7328 O.3     1  UNL1       -0.4684
     16 O         141.0522  141.4651  160.8394 O.3     1  UNL1       -0.4658
     17 C         142.4567  141.6734  161.3232 C.3     1  UNL1        0.2515
     18 C         142.7086  142.0608  162.7502 C.ar    1  UNL1        0.1097
     19 C         143.1554  143.4092  163.2320 C.ar    1  UNL1        0.0553
     20 S         143.2809  143.3496  164.7256 S.2     1  UNL1       -0.0662
     21 C         142.9117  141.9643  165.1669 C.ar    1  UNL1        0.1105
     22 N         142.5579  141.1678  163.9460 N.ar    1  UNL1       -0.2390
     23 C         142.8984  141.4635  166.5807 C.ar    1  UNL1        0.0239
     24 C         142.6345  140.0137  166.8604 C.ar    1  UNL1        0.0029
     25 C         142.6213  139.5129  168.2742 C.ar    1  UNL1        0.0115
     26 C         142.8720  140.4619  169.4084 C.ar    1  UNL1        0.0577
     27 CL        142.8587  139.9611  170.8223 Cl      1  UNL1       -0.0822
     28 C         143.1359  141.9117  169.1288 C.ar    1  UNL1        0.0115
     29 C         143.1491  142.4125  167.7149 C.ar    1  UNL1        0.0029
@<TRIPOS>BOND
     1    14    15    1
     2    15     1    1
     3     1     2   ar
     4     2     3   ar
     5     3     4   ar
     6     4     5   ar
     7     5     7    1
     8     7     8    2
     9     7     9   am
    10     9    10    1
    11    10    11    1
    12    11    12    1
    13    12    13    1
    14     5     6   ar
    15     6    16    1
    16    16    17    1
    17    17    18    1
    18    18    19   ar
    19    19    20   ar
    20    20    21   ar
    21    21    23    1
    22    23    24   ar
    23    24    25   ar
    24    25    26   ar
    25    26    27    1
    26    26    28   ar
    27    28    29   ar
    28    21    22   ar
    29     6     1   ar
    30    22    18   ar
    31    13     9    1
    32    29    23   ar
@<TRIPOS>MOLECULE
*****
 29 32 0 0 0
SMALL
GASTEIGER

@<TRIPOS>ATOM
      1 C         144.0206  140.1132  162.7045 C.ar    1  UNL1        0.1725
      2 C         145.1276  140.6116  163.5855 C.ar    1  UNL1        0.0401
      3 C         145.4667  142.0726  163.6099 C.ar    1  UNL1        0.0035
      4 C         144.6988  143.0351  162.7533 C.ar    1  UNL1        0.0078
      5 C         143.5919  142.5367  161.8723 C.ar    1  UNL1        0.0905
      6 C         143.2528  141.0758  161.8479 C.ar    1  UNL1        0.1771
      7 C         142.8239  143.4993  161.0157 C.2     1  UNL1        0.2521
      8 O         143.1605  143.6419  159.5609 O.2     1  UNL1       -0.2698
      9 N         141.7195  144.3193  161.6138 N.am    1  UNL1       -0.2760
     10 C         140.8689  145.3174  160.8857 C.3     1  UNL1        0.0938
     11 C         139.8954  145.9002  161.8669 C.3     1  UNL1        0.0233
     12 C         140.1444  145.2621  163.2015 C.3     1  UNL1        0.0233
     13 C         141.2718  144.2851  163.0450 C.3     1  UNL1        0.0938
     14 C         144.0066  137.8269  161.4705 C.3     1  UNL1        0.2526
     15 O         143.6815  138.6522  162.6801 O.3     1  UNL1       -0.4684
     16 O         142.1457  140.5774  160.9669 O.3     1  UNL1       -0.4658
     17 C         140.7265  140.6167  161.4509 C.3     1  UNL1        0.2515
     18 C         140.4090  140.2609  162.8730 C.ar    1  UNL1        0.1097
     19 C         139.9058  138.9338  163.3585 C.ar    1  UNL1        0.0553
     20 S         139.7248  139.0223  164.8449 S.2     1  UNL1       -0.0662
     21 C         140.1161  140.4041  165.2781 C.ar    1  UNL1        0.1105
     22 N         140.5389  141.1695  164.0594 N.ar    1  UNL1       -0.2390
     23 C         140.0892  140.9283  166.6832 C.ar    1  UNL1        0.0239
     24 C         139.6234  140.0468  167.8038 C.ar    1  UNL1        0.0029
     25 C         139.5965  140.5711  169.2090 C.ar    1  UNL1        0.0115
     26 C         140.0354  141.9768  169.4935 C.ar    1  UNL1        0.0577
     27 CL        140.0085  142.5011  170.8986 Cl      1  UNL1       -0.0822
     28 C         140.5012  142.8584  168.3729 C.ar    1  UNL1        0.0115
     29 C         140.5281  142.3342  166.9678 C.ar    1  UNL1        0.0029
@<TRIPOS>BOND
     1    14    15    1
     2    15     1    1
     3     1     2   ar
     4     2     3   ar
     5     3     4   ar
     6     4     5   ar
     7     5     7    1
     8     7     8    2
     9     7     9   am
    10     9    10    1
    11    10    11    1
    12    11    12    1
    13    12    13    1
    14     5     6   ar
    15     6    16    1
    16    16    17    1
    17    17    18    1
    18    18    19   ar
    19    19    20   ar
    20    20    21   ar
    21    21    23    1
    22    23    24   ar
    23    24    25   ar
    24    25    26   ar
    25    26    27    1
    26    26    28   ar
    27    28    29   ar
    28    21    22   ar
    29     6     1   ar
    30    22    18   ar
    31    13     9    1
    32    29    23   ar
@<TRIPOS>MOLECULE
*****
 29 32 0 0 0
SMALL
GASTEIGER

@<TRIPOS>ATOM
      1 C         144.0688  143.1736  162.7740 C.ar    1  UNL1        0.1725
      2 C         144.1243  144.4045  163.6294 C.ar    1  UNL1        0.0401
      3 C         142.8904  145.2328  163.8326 C.ar    1  UNL1        0.0035
      4 C         141.6010  144.8304  163.1804 C.ar    1  UNL1        0.0078
      5 C         141.5455  143.5995  162.3250 C.ar    1  UNL1        0.0905
      6 C         142.7794  142.7711  162.1218 C.ar    1  UNL1        0.1771
      7 C         140.2561  143.1969  161.6728 C.2     1  UNL1        0.2521
      8 O         140.0275  143.4893  160.2194 O.2     1  UNL1       -0.2698
      9 N         139.1953  142.5021  162.4739 N.am    1  UNL1       -0.2760
     10 C         137.8627  142.0422  161.9613 C.3     1  UNL1        0.0938
     11 C         137.1246  141.4010  163.0988 C.3     1  UNL1        0.0233
     12 C         138.0010  141.4646  164.3146 C.3     1  UNL1        0.0233
     13 C         139.2807  142.1451  163.9283 C.3     1  UNL1        0.0938
     14 C         145.8476  141.5218  163.6998 C.3     1  UNL1        0.2526
     15 O         145.3027  142.3452  162.5707 O.3     1  UNL1       -0.4684
     16 O         142.7238  141.5402  161.2663 O.3     1  UNL1       -0.4658
     17 C         142.9710  140.1918  161.8753 C.3     1  UNL1        0.2515
     18 C         142.1699  139.7470  163.0628 C.ar    1  UNL1        0.1097
     19 C         141.0719  138.7250  163.0529 C.ar    1  UNL1        0.0553
     20 S         140.5496  138.5924  164.4527 S.2     1  UNL1       -0.0662
     21 C         141.3247  139.5323  165.3278 C.ar    1  UNL1        0.1105
     22 N         142.3261  140.2459  164.4688 N.ar    1  UNL1       -0.2390
     23 C         141.1322  139.7249  166.8029 C.ar    1  UNL1        0.0239
     24 C         139.7636  140.0018  167.3508 C.ar    1  UNL1        0.0029
     25 C         139.5711  140.1944  168.8258 C.ar    1  UNL1        0.0115
     26 C         140.7471  140.1100  169.7530 C.ar    1  UNL1        0.0577
     27 CL        140.5546  140.3026  171.2280 Cl      1  UNL1       -0.0822
     28 C         142.1158  139.8331  169.2051 C.ar    1  UNL1        0.0115
     29 C         142.3083  139.6406  167.7301 C.ar    1  UNL1        0.0029
@<TRIPOS>BOND
     1    14    15    1
     2    15     1    1
     3     1     2   ar
     4     2     3   ar
     5     3     4   ar
     6     4     5   ar
     7     5     7    1
     8     7     8    2
     9     7     9   am
    10     9    10    1
    11    10    11    1
    12    11    12    1
    13    12    13    1
    14     5     6   ar
    15     6    16    1
    16    16    17    1
    17    17    18    1
    18    18    19   ar
    19    19    20   ar
    20    20    21   ar
    21    21    23    1
    22    23    24   ar
    23    24    25   ar
    24    25    26   ar
    25    26    27    1
    26    26    28   ar
    27    28    29   ar
    28    21    22   ar
    29     6     1   ar
    30    22    18   ar
    31    13     9    1
    32    29    23   ar
@<TRIPOS>MOLECULE
*****
 29 32 0 0 0
SMALL
GASTEIGER

@<TRIPOS>ATOM
      1 C         141.1854  144.6235  162.9306 C.ar    1  UNL1        0.1725
      2 C         142.2543  145.3570  163.6852 C.ar    1  UNL1        0.0401
      3 C         143.6969  145.0021  163.4776 C.ar    1  UNL1        0.0035
      4 C         144.0705  143.9138  162.5153 C.ar    1  UNL1        0.0078
      5 C         143.0016  143.1804  161.7608 C.ar    1  UNL1        0.0905
      6 C         141.5591  143.5352  161.9684 C.ar    1  UNL1        0.1771
      7 C         143.3753  142.0920  160.7985 C.2     1  UNL1        0.2521
      8 O         143.5504  142.4060  159.3422 O.2     1  UNL1       -0.2698
      9 N         143.5738  140.6897  161.2925 N.am    1  UNL1       -0.2760
     10 C         143.9468  139.5038  160.4532 C.3     1  UNL1        0.0938
     11 C         144.0376  138.3082  161.3545 C.3     1  UNL1        0.0233
     12 C         143.7208  138.7552  162.7509 C.3     1  UNL1        0.0233
     13 C         143.4341  140.2270  162.7125 C.3     1  UNL1        0.0938
     14 C         139.1038  144.7664  164.4786 C.3     1  UNL1        0.2526
     15 O         139.7429  144.9783  163.1383 O.3     1  UNL1       -0.4684
     16 O         140.4902  142.8017  161.2137 O.3     1  UNL1       -0.4658
     17 C         140.0914  141.4177  161.6330 C.3     1  UNL1        0.2515
     18 C         139.6092  141.1673  163.0311 C.ar    1  UNL1        0.1097
     19 C         138.2888  140.5677  163.4142 C.ar    1  UNL1        0.0553
     20 S         138.2263  140.5023  164.9114 S.2     1  UNL1       -0.0662
     21 C         139.5082  141.0615  165.4537 C.ar    1  UNL1        0.1105
     22 N         140.3629  141.4725  164.2916 N.ar    1  UNL1       -0.2390
     23 C         139.8716  141.1875  166.9036 C.ar    1  UNL1        0.0239
     24 C         139.5576  140.0715  167.8552 C.ar    1  UNL1        0.0029
     25 C         139.9209  140.1975  169.3051 C.ar    1  UNL1        0.0115
     26 C         140.5983  141.4396  169.8033 C.ar    1  UNL1        0.0577
     27 CL        140.9617  141.5656  171.2531 Cl      1  UNL1       -0.0822
     28 C         140.9123  142.5557  168.8516 C.ar    1  UNL1        0.0115
     29 C         140.5490  142.4297  167.4018 C.ar    1  UNL1        0.0029
@<TRIPOS>BOND
     1    14    15    1
     2    15     1    1
     3     1     2   ar
     4     2     3   ar
     5     3     4   ar
     6     4     5   ar
     7     5     7    1
     8     7     8    2
     9     7     9   am
    10     9    10    1
    11    10    11    1
    12    11    12    1
    13    12    13    1
    14     5     6   ar
    15     6    16    1
    16    16    17    1
    17    17    18    1
    18    18    19   ar
    19    19    20   ar
    20    20    21   ar
    21    21    23    1
    22    23    24   ar
    23    24    25   ar
    24    25    26   ar
    25    26    27    1
    26    26    28   ar
    27    28    29   ar
    28    21    22   ar
    29     6     1   ar
    30    22    18   ar
    31    13     9    1
    32    29    23   ar
@<TRIPOS>MOLECULE
*****
 29 32 0 0 0
SMALL
GASTEIGER

@<TRIPOS>ATOM
      1 C         139.8831  144.2513  161.9266 C.ar    1  UNL1        0.1725
      2 C         138.7699  144.9519  162.6475 C.ar    1  UNL1        0.0401
      3 C         137.6620  144.1558  163.2711 C.ar    1  UNL1        0.0035
      4 C         137.6675  142.6590  163.1739 C.ar    1  UNL1        0.0078
      5 C         138.7808  141.9583  162.4530 C.ar    1  UNL1        0.0905
      6 C         139.8886  142.7545  161.8294 C.ar    1  UNL1        0.1771
      7 C         138.7863  140.4614  162.3557 C.2     1  UNL1        0.2521
      8 O         138.7731  139.7972  161.0109 O.2     1  UNL1       -0.2698
      9 N         138.8049  139.6289  163.6033 N.am    1  UNL1       -0.2760
     10 C         138.8123  138.1301  163.6629 C.3     1  UNL1        0.0938
     11 C         138.8315  137.7238  165.1067 C.3     1  UNL1        0.0233
     12 C         138.8359  138.9715  165.9394 C.3     1  UNL1        0.0233
     13 C         138.8195  140.1488  165.0102 C.3     1  UNL1        0.0938
     14 C         140.9812  145.3185  159.8278 C.3     1  UNL1        0.2526
     15 O         140.9909  145.0474  161.3030 O.3     1  UNL1       -0.4684
     16 O         141.0019  142.0537  161.1085 O.3     1  UNL1       -0.4658
     17 C         142.3097  141.8124  161.8022 C.3     1  UNL1        0.2515
     18 C         142.3461  141.0366  163.0855 C.ar    1  UNL1        0.1097
     19 C         142.6022  139.5647  163.2189 C.ar    1  UNL1        0.0553
     20 S         142.5471  139.2149  164.6765 S.2     1  UNL1       -0.0662
     21 C         142.2569  140.4706  165.4440 C.ar    1  UNL1        0.1105
     22 N         142.1326  141.5965  164.4606 N.ar    1  UNL1       -0.2390
     23 C         142.1157  140.5811  166.9332 C.ar    1  UNL1        0.0239
     24 C         142.6187  139.4793  167.8180 C.ar    1  UNL1        0.0029
     25 C         142.4776  139.5897  169.3072 C.ar    1  UNL1        0.0115
     26 C         141.8333  140.8019  169.9117 C.ar    1  UNL1        0.0577
     27 CL        141.6922  140.9123  171.4009 Cl      1  UNL1       -0.0822
     28 C         141.3303  141.9037  169.0269 C.ar    1  UNL1        0.0115
     29 C         141.4714  141.7933  167.5377 C.ar    1  UNL1        0.0029
@<TRIPOS>BOND
     1    14    15    1
     2    15     1    1
     3     1     2   ar
     4     2     3   ar
     5     3     4   ar
     6     4     5   ar
     7     5     7    1
     8     7     8    2
     9     7     9   am
    10     9    10    1
    11    10    11    1
    12    11    12    1
    13    12    13    1
    14     5     6   ar
    15     6    16    1
    16    16    17    1
    17    17    18    1
    18    18    19   ar
    19    19    20   ar
    20    20    21   ar
    21    21    23    1
    22    23    24   ar
    23    24    25   ar
    24    25    26   ar
    25    26    27    1
    26    26    28   ar
    27    28    29   ar
    28    21    22   ar
    29     6     1   ar
    30    22    18   ar
    31    13     9    1
    32    29    23   ar
@<TRIPOS>MOLECULE
*****
 29 32 0 0 0
SMALL
GASTEIGER

@<TRIPOS>ATOM
      1 C         139.0923  142.0563  158.4223 C.ar    1  UNL1        0.1725
      2 C         140.1536  142.0858  157.3627 C.ar    1  UNL1        0.0401
      3 C         141.2827  143.0685  157.4591 C.ar    1  UNL1        0.0035
      4 C         141.3506  144.0218  158.6152 C.ar    1  UNL1        0.0078
      5 C         140.2894  143.9924  159.6748 C.ar    1  UNL1        0.0905
      6 C         139.1602  143.0096  159.5784 C.ar    1  UNL1        0.1771
      7 C         140.3572  144.9457  160.8310 C.2     1  UNL1        0.2521
      8 O         139.3823  146.0818  160.9245 O.2     1  UNL1       -0.2698
      9 N         141.4000  144.7629  161.8936 N.am    1  UNL1       -0.2760
     10 C         141.5892  145.6314  163.1018 C.3     1  UNL1        0.0938
     11 C         142.7428  145.0848  163.8895 C.3     1  UNL1        0.0233
     12 C         143.2666  143.8784  163.1681 C.3     1  UNL1        0.0233
     13 C         142.4367  143.6795  161.9345 C.3     1  UNL1        0.0938
     14 C         137.0503  141.0945  157.1358 C.3     1  UNL1        0.2526
     15 O         137.9632  141.0736  158.3259 O.3     1  UNL1       -0.4684
     16 O         138.0990  142.9802  160.6381 O.3     1  UNL1       -0.4658
     17 C         138.2436  142.0670  161.8192 C.3     1  UNL1        0.2515
     18 C         138.6847  142.6172  163.1431 C.ar    1  UNL1        0.1097
     19 C         138.1229  143.8291  163.8255 C.ar    1  UNL1        0.0553
     20 S         138.8560  144.0131  165.1212 S.2     1  UNL1       -0.0662
     21 C         139.8709  142.9148  165.2396 C.ar    1  UNL1        0.1105
     22 N         139.7650  142.0522  164.0170 N.ar    1  UNL1       -0.2390
     23 C         140.8242  142.7144  166.3802 C.ar    1  UNL1        0.0239
     24 C         140.3593  142.9206  167.7913 C.ar    1  UNL1        0.0029
     25 C         141.3126  142.7202  168.9319 C.ar    1  UNL1        0.0115
     26 C         142.7308  142.3137  168.6614 C.ar    1  UNL1        0.0577
     27 CL        143.6841  142.1133  169.8020 Cl      1  UNL1       -0.0822
     28 C         143.1958  142.1075  167.2503 C.ar    1  UNL1        0.0115
     29 C         142.2425  142.3079  166.1097 C.ar    1  UNL1        0.0029
@<TRIPOS>BOND
     1    14    15    1
     2    15     1    1
     3     1     2   ar
     4     2     3   ar
     5     3     4   ar
     6     4     5   ar
     7     5     7    1
     8     7     8    2
     9     7     9   am
    10     9    10    1
    11    10    11    1
    12    11    12    1
    13    12    13    1
    14     5     6   ar
    15     6    16    1
    16    16    17    1
    17    17    18    1
    18    18    19   ar
    19    19    20   ar
    20    20    21   ar
    21    21    23    1
    22    23    24   ar
    23    24    25   ar
    24    25    26   ar
    25    26    27    1
    26    26    28   ar
    27    28    29   ar
    28    21    22   ar
    29     6     1   ar
    30    22    18   ar
    31    13     9    1
    32    29    23   ar
@<TRIPOS>MOLECULE
*****
 29 32 0 0 0
SMALL
GASTEIGER

@<TRIPOS>ATOM
      1 C         143.4811  140.1251  159.1106 C.ar    1  UNL1        0.1725
      2 C         142.9816  141.3169  158.3491 C.ar    1  UNL1        0.0401
      3 C         142.9908  142.6735  158.9890 C.ar    1  UNL1        0.0035
      4 C         143.4996  142.8383  160.3904 C.ar    1  UNL1        0.0078
      5 C         143.9991  141.6464  161.1519 C.ar    1  UNL1        0.0905
      6 C         143.9899  140.2898  160.5120 C.ar    1  UNL1        0.1771
      7 C         144.5079  141.8111  162.5534 C.2     1  UNL1        0.2521
      8 O         145.9662  141.6210  162.8490 O.2     1  UNL1       -0.2698
      9 N         143.5585  142.1659  163.6591 N.am    1  UNL1       -0.2760
     10 C         143.9193  142.3626  165.1017 C.3     1  UNL1        0.0938
     11 C         142.6654  142.7045  165.8506 C.3     1  UNL1        0.0233
     12 C         141.5297  142.7192  164.8708 C.3     1  UNL1        0.0233
     13 C         142.0817  142.3863  163.5164 C.3     1  UNL1        0.0938
     14 C         142.1812  138.1756  157.9881 C.3     1  UNL1        0.2526
     15 O         143.4718  138.7685  158.4706 O.3     1  UNL1       -0.4684
     16 O         144.4894  139.0979  161.2735 O.3     1  UNL1       -0.4658
     17 C         143.5199  138.0723  161.7817 C.3     1  UNL1        0.2515
     18 C         142.5300  138.4392  162.8473 C.ar    1  UNL1        0.1097
     19 C         141.0497  138.5926  162.6604 C.ar    1  UNL1        0.0553
     20 S         140.4515  138.9652  163.9845 S.2     1  UNL1       -0.0662
     21 C         141.5621  139.0421  164.9898 C.ar    1  UNL1        0.1105
     22 N         142.8468  138.7170  164.2869 N.ar    1  UNL1       -0.2390
     23 C         141.4142  139.3840  166.4428 C.ar    1  UNL1        0.0239
     24 C         142.5925  139.2703  167.3638 C.ar    1  UNL1        0.0029
     25 C         142.4445  139.6122  168.8168 C.ar    1  UNL1        0.0115
     26 C         141.1182  140.0679  169.3487 C.ar    1  UNL1        0.0577
     27 CL        140.9702  140.4098  170.8017 Cl      1  UNL1       -0.0822
     28 C         139.9397  140.1817  168.4277 C.ar    1  UNL1        0.0115
     29 C         140.0877  139.8397  166.9747 C.ar    1  UNL1        0.0029
@<TRIPOS>BOND
     1    14    15    1
     2    15     1    1
     3     1     2   ar
     4     2     3   ar
     5     3     4   ar
     6     4     5   ar
     7     5     7    1
     8     7     8    2
     9     7     9   am
    10     9    10    1
    11    10    11    1
    12    11    12    1
    13    12    13    1
    14     5     6   ar
    15     6    16    1
    16    16    17    1
    17    17    18    1
    18    18    19   ar
    19    19    20   ar
    20    20    21   ar
    21    21    23    1
    22    23    24   ar
    23    24    25   ar
    24    25    26   ar
    25    26    27    1
    26    26    28   ar
    27    28    29   ar
    28    21    22   ar
    29     6     1   ar
    30    22    18   ar
    31    13     9    1
    32    29    23   ar
