@<TRIPOS>MOLECULE
*****
 36 40 0 0 0
SMALL
GASTEIGER

@<TRIPOS>ATOM
      1 N         143.0415  144.1574  162.5978 N.3     1  UNL1       -0.2703
      2 C         142.3511  144.9105  163.6961 C.3     1  UNL1        0.0736
      3 C         140.8909  145.2336  163.5810 C.3     1  UNL1        0.0331
      4 C         140.1210  144.8036  162.3675 C.3     1  UNL1        0.0570
      5 C         140.8113  144.0505  161.2693 C.3     1  UNL1        0.0331
      6 C         142.2716  143.7274  161.3844 C.3     1  UNL1        0.0736
      7 N         138.6607  145.1267  162.2524 N.3     1  UNL1       -0.2934
      8 H         138.4187  145.0479  161.2647 H       1  UNL1        0.1236
      9 C         137.6514  144.3175  163.0115 C.3     1  UNL1        0.1152
     10 C         137.8428  142.8384  163.1712 C.ar    1  UNL1        0.0782
     11 C         138.1670  142.2652  164.5189 C.ar    1  UNL1        0.0562
     12 C         138.3584  140.7860  164.6785 C.ar    1  UNL1        0.1752
     13 C         138.2256  139.8800  163.4905 C.ar    1  UNL1        0.1914
     14 C         137.9015  140.4532  162.1427 C.ar    1  UNL1        0.1384
     15 N         137.7100  141.9323  161.9831 N.ar    1  UNL1       -0.2434
     16 O         138.4171  138.4008  163.6501 O.3     1  UNL1       -0.4668
     17 C         138.7413  137.8277  164.9978 C.3     1  UNL1        0.2527
     18 C         138.8740  138.7338  166.1859 C.3     1  UNL1        0.2526
     19 O         138.6826  140.2129  166.0263 O.3     1  UNL1       -0.4683
     20 C         144.5017  143.8342  162.7130 C.3     1  UNL1        0.1064
     21 C         144.9356  142.4513  163.0994 C.3     1  UNL1        0.1523
     22 O         146.3211  141.9804  162.7695 O.3     1  UNL1       -0.3785
     23 H         146.8018  142.6866  162.3102 H       1  UNL1        0.2108
     24 C         143.2783  138.8317  161.0014 C.ar    1  UNL1        0.2250
     25 C         142.3269  137.9198  161.7176 C.ar    1  UNL1        0.0593
     26 C         141.9278  138.2144  163.1333 C.ar    1  UNL1        0.0254
     27 C         142.4803  139.4209  163.8326 C.ar    1  UNL1        0.0991
     28 N         142.0813  139.7155  165.2482 N.ar    1  UNL1       -0.2400
     29 C         142.6337  140.9220  165.9476 C.ar    1  UNL1        0.1282
     30 C         143.5852  141.8340  165.2313 C.ar    1  UNL1        0.1590
     31 F         144.1376  143.0405  165.9306 F       1  UNL1       -0.2027
     32 C         143.9842  141.5394  163.8157 C.ar    1  UNL1        0.0538
     33 C         143.4317  140.3328  163.1163 C.ar    1  UNL1        0.1025
     34 N         143.8307  140.0382  161.7007 N.ar    1  UNL1       -0.2103
     35 C         142.6387  138.1299  158.5830 C.3     1  UNL1        0.2542
     36 O         143.6773  138.5371  159.5857 O.3     1  UNL1       -0.4561
@<TRIPOS>BOND
     1    35    36    1
     2    36    24    1
     3    24    25   ar
     4    25    26   ar
     5    26    27   ar
     6    27    28   ar
     7    28    29   ar
     8    29    30   ar
     9    30    31    1
    10    30    32   ar
    11    32    21    1
    12    21    22    1
    13    21    20    1
    14    20     1    1
    15     1     2    1
    16     2     3    1
    17     3     4    1
    18     4     7    1
    19     7     9    1
    20     9    10    1
    21    10    11   ar
    22    11    12   ar
    23    12    13   ar
    24    13    14   ar
    25    14    15   ar
    26    13    16    1
    27    16    17    1
    28    17    18    1
    29    18    19    1
    30     4     5    1
    31     5     6    1
    32    32    33   ar
    33    33    34   ar
    34    34    24   ar
    35    33    27   ar
    36     6     1    1
    37    15    10   ar
    38    19    12    1
    39    22    23    1
    40     7     8    1
@<TRIPOS>MOLECULE
*****
 36 40 0 0 0
SMALL
GASTEIGER

@<TRIPOS>ATOM
      1 N         143.1102  144.1244  162.4885 N.3     1  UNL1       -0.2703
      2 C         142.2330  143.4794  161.4567 C.3     1  UNL1        0.0736
      3 C         140.7747  143.8241  161.3909 C.3     1  UNL1        0.0331
      4 C         140.1935  144.8137  162.3568 C.3     1  UNL1        0.0570
      5 C         141.0707  145.4586  163.3886 C.3     1  UNL1        0.0331
      6 C         142.5291  145.1139  163.4544 C.3     1  UNL1        0.0736
      7 N         138.7351  145.1584  162.2909 N.3     1  UNL1       -0.2934
      8 H         138.4539  145.0634  161.3150 H       1  UNL1        0.1236
      9 C         137.7433  144.3814  163.1049 C.3     1  UNL1        0.1152
     10 C         137.9903  142.9327  163.4052 C.ar    1  UNL1        0.0782
     11 C         137.7920  141.9005  162.3350 C.ar    1  UNL1        0.0562
     12 C         138.0390  140.4518  162.6354 C.ar    1  UNL1        0.1752
     13 C         138.4844  140.0353  164.0058 C.ar    1  UNL1        0.1914
     14 C         138.6828  141.0675  165.0759 C.ar    1  UNL1        0.1384
     15 N         138.4358  142.5162  164.7757 N.ar    1  UNL1       -0.2434
     16 O         138.7315  138.5865  164.3061 O.3     1  UNL1       -0.4668
     17 C         138.5331  137.5543  163.2360 C.3     1  UNL1        0.2527
     18 C         138.0877  137.9709  161.8655 C.3     1  UNL1        0.2526
     19 O         137.8406  139.4196  161.5652 O.3     1  UNL1       -0.4683
     20 C         144.5686  143.7797  162.5544 C.3     1  UNL1        0.1064
     21 C         145.0229  142.5891  163.3458 C.3     1  UNL1        0.1523
     22 O         146.2674  141.8534  162.9460 O.3     1  UNL1       -0.3785
     23 H         146.6539  142.2739  162.1620 H       1  UNL1        0.2108
     24 C         142.9037  138.6203  163.2580 C.ar    1  UNL1        0.2250
     25 C         142.1135  138.1656  164.4490 C.ar    1  UNL1        0.0593
     26 C         142.0297  139.0337  165.6694 C.ar    1  UNL1        0.0254
     27 C         142.7361  140.3566  165.6987 C.ar    1  UNL1        0.0991
     28 N         142.6522  141.2248  166.9191 N.ar    1  UNL1       -0.2400
     29 C         143.3586  142.5477  166.9483 C.ar    1  UNL1        0.1282
     30 C         144.1489  143.0025  165.7572 C.ar    1  UNL1        0.1590
     31 F         144.8552  144.3254  165.7865 F       1  UNL1       -0.2027
     32 C         144.2327  142.1344  164.5369 C.ar    1  UNL1        0.0538
     33 C         143.5263  140.8114  164.5076 C.ar    1  UNL1        0.1025
     34 N         143.6101  139.9432  163.2872 N.ar    1  UNL1       -0.2103
     35 C         143.8285  138.1778  160.8707 C.3     1  UNL1        0.2542
     36 O         142.9876  137.7522  162.0376 O.3     1  UNL1       -0.4561
@<TRIPOS>BOND
     1    35    36    1
     2    36    24    1
     3    24    25   ar
     4    25    26   ar
     5    26    27   ar
     6    27    28   ar
     7    28    29   ar
     8    29    30   ar
     9    30    31    1
    10    30    32   ar
    11    32    21    1
    12    21    22    1
    13    21    20    1
    14    20     1    1
    15     1     2    1
    16     2     3    1
    17     3     4    1
    18     4     7    1
    19     7     9    1
    20     9    10    1
    21    10    11   ar
    22    11    12   ar
    23    12    13   ar
    24    13    14   ar
    25    14    15   ar
    26    13    16    1
    27    16    17    1
    28    17    18    1
    29    18    19    1
    30     4     5    1
    31     5     6    1
    32    32    33   ar
    33    33    34   ar
    34    34    24   ar
    35    33    27   ar
    36     6     1    1
    37    15    10   ar
    38    19    12    1
    39    22    23    1
    40     7     8    1
@<TRIPOS>MOLECULE
*****
 36 40 0 0 0
SMALL
GASTEIGER

@<TRIPOS>ATOM
      1 N         137.9207  142.9849  162.9895 N.3     1  UNL1       -0.2703
      2 C         137.7147  141.8343  163.9295 C.3     1  UNL1        0.0736
      3 C         137.6800  140.4310  163.4010 C.3     1  UNL1        0.0331
      4 C         137.8514  140.1781  161.9324 C.3     1  UNL1        0.0570
      5 C         138.0574  141.3287  160.9923 C.3     1  UNL1        0.0331
      6 C         138.0920  142.7321  161.5209 C.3     1  UNL1        0.0736
      7 N         137.8167  138.7748  161.4039 N.3     1  UNL1       -0.2934
      8 H         137.2635  138.7963  160.5472 H       1  UNL1        0.1236
      9 C         139.0968  138.0654  161.0749 C.3     1  UNL1        0.1152
     10 C         140.3016  138.2479  161.9496 C.ar    1  UNL1        0.0782
     11 C         141.3665  139.2313  161.5639 C.ar    1  UNL1        0.0562
     12 C         142.5713  139.4138  162.4386 C.ar    1  UNL1        0.1752
     13 C         142.7112  138.6129  163.6991 C.ar    1  UNL1        0.1914
     14 C         141.6463  137.6294  164.0849 C.ar    1  UNL1        0.1384
     15 N         140.4415  137.4469  163.2102 N.ar    1  UNL1       -0.2434
     16 O         143.9160  138.7953  164.5739 O.3     1  UNL1       -0.4668
     17 C         144.9809  139.7788  164.1881 C.3     1  UNL1        0.2527
     18 C         144.8410  140.5798  162.9276 C.3     1  UNL1        0.2526
     19 O         143.6362  140.3973  162.0529 O.3     1  UNL1       -0.4683
     20 C         137.9554  144.3882  163.5180 C.3     1  UNL1        0.1064
     21 C         138.9477  144.7664  164.5774 C.3     1  UNL1        0.1523
     22 O         138.4894  145.4836  165.8125 O.3     1  UNL1       -0.3785
     23 H         137.5307  145.6244  165.7678 H       1  UNL1        0.2108
     24 C         140.8953  141.7424  167.2814 C.ar    1  UNL1        0.2250
     25 C         142.3459  141.4034  167.1056 C.ar    1  UNL1        0.0593
     26 C         143.1473  142.0725  166.0284 C.ar    1  UNL1        0.0254
     27 C         142.4981  143.0805  165.1271 C.ar    1  UNL1        0.0991
     28 N         143.2994  143.7495  164.0500 N.ar    1  UNL1       -0.2400
     29 C         142.6503  144.7575  163.1487 C.ar    1  UNL1        0.1282
     30 C         141.1996  145.0965  163.3244 C.ar    1  UNL1        0.1590
     31 F         140.5504  146.1045  162.4231 F       1  UNL1       -0.2027
     32 C         140.3983  144.4275  164.4016 C.ar    1  UNL1        0.0538
     33 C         141.0475  143.4194  165.3029 C.ar    1  UNL1        0.1025
     34 N         140.2462  142.7504  166.3800 N.ar    1  UNL1       -0.2103
     35 C         139.9710  141.7138  169.7093 C.3     1  UNL1        0.2542
     36 O         140.0940  141.0733  168.3585 O.3     1  UNL1       -0.4561
@<TRIPOS>BOND
     1    35    36    1
     2    36    24    1
     3    24    25   ar
     4    25    26   ar
     5    26    27   ar
     6    27    28   ar
     7    28    29   ar
     8    29    30   ar
     9    30    31    1
    10    30    32   ar
    11    32    21    1
    12    21    22    1
    13    21    20    1
    14    20     1    1
    15     1     2    1
    16     2     3    1
    17     3     4    1
    18     4     7    1
    19     7     9    1
    20     9    10    1
    21    10    11   ar
    22    11    12   ar
    23    12    13   ar
    24    13    14   ar
    25    14    15   ar
    26    13    16    1
    27    16    17    1
    28    17    18    1
    29    18    19    1
    30     4     5    1
    31     5     6    1
    32    32    33   ar
    33    33    34   ar
    34    34    24   ar
    35    33    27   ar
    36     6     1    1
    37    15    10   ar
    38    19    12    1
    39    22    23    1
    40     7     8    1
@<TRIPOS>MOLECULE
*****
 36 40 0 0 0
SMALL
GASTEIGER

@<TRIPOS>ATOM
      1 N         142.0754  138.2092  162.6392 N.3     1  UNL1       -0.2703
      2 C         142.7434  138.8712  161.4706 C.3     1  UNL1        0.0736
      3 C         143.9493  139.7365  161.6874 C.3     1  UNL1        0.0331
      4 C         144.4874  139.9397  163.0728 C.3     1  UNL1        0.0570
      5 C         143.8194  139.2777  164.2414 C.3     1  UNL1        0.0331
      6 C         142.6134  138.4124  164.0246 C.3     1  UNL1        0.0736
      7 N         145.6933  140.8050  163.2896 N.3     1  UNL1       -0.2934
      8 H         146.1912  140.8443  162.4002 H       1  UNL1        0.1236
      9 C         145.5265  142.2210  163.7553 C.3     1  UNL1        0.1152
     10 C         144.2478  142.9554  163.4801 C.ar    1  UNL1        0.0782
     11 C         143.9302  143.4123  162.0871 C.ar    1  UNL1        0.0562
     12 C         142.6515  144.1467  161.8120 C.ar    1  UNL1        0.1752
     13 C         141.6905  144.4241  162.9297 C.ar    1  UNL1        0.1914
     14 C         142.0081  143.9672  164.3227 C.ar    1  UNL1        0.1384
     15 N         143.2867  143.2328  164.5979 N.ar    1  UNL1       -0.2434
     16 O         140.4118  145.1585  162.6545 O.3     1  UNL1       -0.4668
     17 C         140.0942  145.6154  161.2615 C.3     1  UNL1        0.2527
     18 C         141.0553  145.3379  160.1438 C.3     1  UNL1        0.2526
     19 O         142.3339  144.6036  160.4190 O.3     1  UNL1       -0.4683
     20 C         140.8695  137.3440  162.4225 C.3     1  UNL1        0.1064
     21 C         139.5002  137.9563  162.4060 C.3     1  UNL1        0.1523
     22 O         138.5783  137.7009  161.2506 O.3     1  UNL1       -0.3785
     23 H         139.0190  137.1250  160.6065 H       1  UNL1        0.2108
     24 C         138.1843  142.1887  161.6281 C.ar    1  UNL1        0.2250
     25 C         137.7370  143.0563  162.7670 C.ar    1  UNL1        0.0593
     26 C         137.7283  142.5132  164.1652 C.ar    1  UNL1        0.0254
     27 C         138.1669  141.1024  164.4245 C.ar    1  UNL1        0.0991
     28 N         138.1582  140.5593  165.8227 N.ar    1  UNL1       -0.2400
     29 C         138.5969  139.1485  166.0820 C.ar    1  UNL1        0.1282
     30 C         139.0442  138.2808  164.9431 C.ar    1  UNL1        0.1590
     31 F         139.4828  136.8700  165.2024 F       1  UNL1       -0.2027
     32 C         139.0529  138.8239  163.5449 C.ar    1  UNL1        0.0538
     33 C         138.6143  140.2348  163.2856 C.ar    1  UNL1        0.1025
     34 N         138.6230  140.7779  161.8874 N.ar    1  UNL1       -0.2103
     35 C         139.2413  142.2807  159.2566 C.3     1  UNL1        0.2542
     36 O         138.1930  142.7319  160.2299 O.3     1  UNL1       -0.4561
@<TRIPOS>BOND
     1    35    36    1
     2    36    24    1
     3    24    25   ar
     4    25    26   ar
     5    26    27   ar
     6    27    28   ar
     7    28    29   ar
     8    29    30   ar
     9    30    31    1
    10    30    32   ar
    11    32    21    1
    12    21    22    1
    13    21    20    1
    14    20     1    1
    15     1     2    1
    16     2     3    1
    17     3     4    1
    18     4     7    1
    19     7     9    1
    20     9    10    1
    21    10    11   ar
    22    11    12   ar
    23    12    13   ar
    24    13    14   ar
    25    14    15   ar
    26    13    16    1
    27    16    17    1
    28    17    18    1
    29    18    19    1
    30     4     5    1
    31     5     6    1
    32    32    33   ar
    33    33    34   ar
    34    34    24   ar
    35    33    27   ar
    36     6     1    1
    37    15    10   ar
    38    19    12    1
    39    22    23    1
    40     7     8    1
@<TRIPOS>MOLECULE
*****
 36 40 0 0 0
SMALL
GASTEIGER

@<TRIPOS>ATOM
      1 N         139.3326  143.4004  161.7657 N.3     1  UNL1       -0.2703
      2 C         140.4882  143.2914  160.8156 C.3     1  UNL1        0.0736
      3 C         141.7978  143.9419  161.1497 C.3     1  UNL1        0.0331
      4 C         141.9520  144.7015  162.4340 C.3     1  UNL1        0.0570
      5 C         140.7964  144.8105  163.3841 C.3     1  UNL1        0.0331
      6 C         139.4867  144.1599  163.0500 C.3     1  UNL1        0.0736
      7 N         143.2616  145.3519  162.7681 N.3     1  UNL1       -0.2934
      8 H         143.0595  146.3292  162.9794 H       1  UNL1        0.1236
      9 C         144.0924  144.8268  163.9012 C.3     1  UNL1        0.1152
     10 C         144.1490  143.3520  164.1690 C.ar    1  UNL1        0.0782
     11 C         143.3860  142.7691  165.3214 C.ar    1  UNL1        0.0562
     12 C         143.4426  141.2942  165.5892 C.ar    1  UNL1        0.1752
     13 C         144.2623  140.4023  164.7045 C.ar    1  UNL1        0.1914
     14 C         145.0253  140.9852  163.5521 C.ar    1  UNL1        0.1384
     15 N         144.9687  142.4600  163.2843 N.ar    1  UNL1       -0.2434
     16 O         144.3189  138.9274  164.9723 O.3     1  UNL1       -0.4668
     17 C         143.5559  138.3446  166.1247 C.3     1  UNL1        0.2527
     18 C         142.7363  139.2366  167.0094 C.3     1  UNL1        0.2526
     19 O         142.6796  140.7114  166.7416 O.3     1  UNL1       -0.4683
     20 C         138.0230  142.7499  161.4316 C.3     1  UNL1        0.1064
     21 C         137.6822  141.4089  162.0110 C.3     1  UNL1        0.1523
     22 O         136.4940  141.2623  162.9146 O.3     1  UNL1       -0.3785
     23 H         136.0595  142.1232  163.0196 H       1  UNL1        0.2108
     24 C         139.1306  138.7148  165.3116 C.ar    1  UNL1        0.2250
     25 C         139.9781  137.5204  164.9873 C.ar    1  UNL1        0.0593
     26 C         140.3428  137.2240  163.5628 C.ar    1  UNL1        0.0254
     27 C         139.8600  138.1220  162.4626 C.ar    1  UNL1        0.0991
     28 N         140.2247  137.8257  161.0381 N.ar    1  UNL1       -0.2400
     29 C         139.7419  138.7237  159.9379 C.ar    1  UNL1        0.1282
     30 C         138.8944  139.9181  160.2622 C.ar    1  UNL1        0.1590
     31 F         138.4117  140.8162  159.1620 F       1  UNL1       -0.2027
     32 C         138.5297  140.2145  161.6867 C.ar    1  UNL1        0.0538
     33 C         139.0125  139.3164  162.7869 C.ar    1  UNL1        0.1025
     34 N         138.6478  139.6128  164.2114 N.ar    1  UNL1       -0.2103
     35 C         137.5259  138.4140  167.3326 C.3     1  UNL1        0.2542
     36 O         138.7659  139.0112  166.7361 O.3     1  UNL1       -0.4561
@<TRIPOS>BOND
     1    35    36    1
     2    36    24    1
     3    24    25   ar
     4    25    26   ar
     5    26    27   ar
     6    27    28   ar
     7    28    29   ar
     8    29    30   ar
     9    30    31    1
    10    30    32   ar
    11    32    21    1
    12    21    22    1
    13    21    20    1
    14    20     1    1
    15     1     2    1
    16     2     3    1
    17     3     4    1
    18     4     7    1
    19     7     9    1
    20     9    10    1
    21    10    11   ar
    22    11    12   ar
    23    12    13   ar
    24    13    14   ar
    25    14    15   ar
    26    13    16    1
    27    16    17    1
    28    17    18    1
    29    18    19    1
    30     4     5    1
    31     5     6    1
    32    32    33   ar
    33    33    34   ar
    34    34    24   ar
    35    33    27   ar
    36     6     1    1
    37    15    10   ar
    38    19    12    1
    39    22    23    1
    40     7     8    1
@<TRIPOS>MOLECULE
*****
 36 40 0 0 0
SMALL
GASTEIGER

@<TRIPOS>ATOM
      1 N         141.5719  138.2124  164.5657 N.3     1  UNL1       -0.2703
      2 C         141.9077  138.0761  163.1102 C.3     1  UNL1        0.0736
      3 C         140.8110  137.9173  162.0992 C.3     1  UNL1        0.0331
      4 C         139.3785  137.8949  162.5438 C.3     1  UNL1        0.0570
      5 C         139.0428  138.0312  163.9994 C.3     1  UNL1        0.0331
      6 C         140.1396  138.1899  165.0104 C.3     1  UNL1        0.0736
      7 N         138.2819  137.7361  161.5329 N.3     1  UNL1       -0.2934
      8 H         137.7248  136.9336  161.8263 H       1  UNL1        0.1236
      9 C         137.3221  138.8618  161.2844 C.3     1  UNL1        0.1152
     10 C         137.8034  140.2817  161.3304 C.ar    1  UNL1        0.0782
     11 C         138.7959  140.7704  160.3173 C.ar    1  UNL1        0.0562
     12 C         139.2772  142.1904  160.3634 C.ar    1  UNL1        0.1752
     13 C         138.7661  143.1216  161.4225 C.ar    1  UNL1        0.1914
     14 C         137.7736  142.6329  162.4355 C.ar    1  UNL1        0.1384
     15 N         137.2923  141.2130  162.3895 N.ar    1  UNL1       -0.2434
     16 O         139.2474  144.5416  161.4685 O.3     1  UNL1       -0.4668
     17 C         140.2398  145.0303  160.4555 C.3     1  UNL1        0.2527
     18 C         140.7509  144.0990  159.3964 C.3     1  UNL1        0.2526
     19 O         140.2696  142.6791  159.3504 O.3     1  UNL1       -0.4683
     20 C         142.6686  138.3712  165.5767 C.3     1  UNL1        0.1064
     21 C         143.0765  139.7410  166.0320 C.3     1  UNL1        0.1523
     22 O         142.9195  140.1304  167.4721 O.3     1  UNL1       -0.3785
     23 H         142.5433  139.3870  167.9688 H       1  UNL1        0.2108
     24 C         140.8661  143.5571  165.1365 C.ar    1  UNL1        0.2250
     25 C         141.4308  144.5375  164.1517 C.ar    1  UNL1        0.0593
     26 C         142.7324  144.2459  163.4655 C.ar    1  UNL1        0.0254
     27 C         143.4692  142.9739  163.7640 C.ar    1  UNL1        0.0991
     28 N         144.7708  142.6824  163.0777 N.ar    1  UNL1       -0.2400
     29 C         145.5075  141.4104  163.3762 C.ar    1  UNL1        0.1282
     30 C         144.9428  140.4299  164.3610 C.ar    1  UNL1        0.1590
     31 F         145.6796  139.1579  164.6595 F       1  UNL1       -0.2027
     32 C         143.6412  140.7214  165.0473 C.ar    1  UNL1        0.0538
     33 C         142.9044  141.9935  164.7487 C.ar    1  UNL1        0.1025
     34 N         141.6029  142.2851  165.4350 N.ar    1  UNL1       -0.2103
     35 C         138.6051  144.8338  165.2237 C.3     1  UNL1        0.2542
     36 O         139.5645  143.8486  165.8227 O.3     1  UNL1       -0.4561
@<TRIPOS>BOND
     1    35    36    1
     2    36    24    1
     3    24    25   ar
     4    25    26   ar
     5    26    27   ar
     6    27    28   ar
     7    28    29   ar
     8    29    30   ar
     9    30    31    1
    10    30    32   ar
    11    32    21    1
    12    21    22    1
    13    21    20    1
    14    20     1    1
    15     1     2    1
    16     2     3    1
    17     3     4    1
    18     4     7    1
    19     7     9    1
    20     9    10    1
    21    10    11   ar
    22    11    12   ar
    23    12    13   ar
    24    13    14   ar
    25    14    15   ar
    26    13    16    1
    27    16    17    1
    28    17    18    1
    29    18    19    1
    30     4     5    1
    31     5     6    1
    32    32    33   ar
    33    33    34   ar
    34    34    24   ar
    35    33    27   ar
    36     6     1    1
    37    15    10   ar
    38    19    12    1
    39    22    23    1
    40     7     8    1
@<TRIPOS>MOLECULE
*****
 36 40 0 0 0
SMALL
GASTEIGER

@<TRIPOS>ATOM
      1 N         143.1792  143.4372  161.8875 N.3     1  UNL1       -0.2703
      2 C         142.8883  144.1200  163.1910 C.3     1  UNL1        0.0736
      3 C         141.5489  144.7541  163.4230 C.3     1  UNL1        0.0331
      4 C         140.5003  144.7054  162.3515 C.3     1  UNL1        0.0570
      5 C         140.7912  144.0227  161.0479 C.3     1  UNL1        0.0331
      6 C         142.1307  143.3886  160.8159 C.3     1  UNL1        0.0736
      7 N         139.1609  145.3395  162.5835 N.3     1  UNL1       -0.2934
      8 H         138.8794  145.7646  161.7001 H       1  UNL1        0.1236
      9 C         138.0059  144.5035  163.0493 C.3     1  UNL1        0.1152
     10 C         138.2076  143.0487  163.3537 C.ar    1  UNL1        0.0782
     11 C         137.9356  142.0170  162.2993 C.ar    1  UNL1        0.0562
     12 C         138.1374  140.5621  162.6038 C.ar    1  UNL1        0.1752
     13 C         138.6112  140.1390  163.9626 C.ar    1  UNL1        0.1914
     14 C         138.8833  141.1706  165.0170 C.ar    1  UNL1        0.1384
     15 N         138.6815  142.6254  164.7125 N.ar    1  UNL1       -0.2434
     16 O         138.8131  138.6841  164.2671 O.3     1  UNL1       -0.4668
     17 C         138.5410  137.6524  163.2127 C.3     1  UNL1        0.2527
     18 C         138.0671  138.0756  161.8539 C.3     1  UNL1        0.2526
     19 O         137.8654  139.5305  161.5495 O.3     1  UNL1       -0.4683
     20 C         144.5186  142.8031  161.6555 C.3     1  UNL1        0.1064
     21 C         145.0091  141.7273  162.5786 C.3     1  UNL1        0.1523
     22 O         146.3748  141.8295  163.1906 O.3     1  UNL1       -0.3785
     23 H         146.8045  142.6448  162.8881 H       1  UNL1        0.2108
     24 C         143.0616  141.3763  166.6201 C.ar    1  UNL1        0.2250
     25 C         142.1865  140.1985  166.9311 C.ar    1  UNL1        0.0593
     26 C         141.9606  139.1376  165.8951 C.ar    1  UNL1        0.0254
     27 C         142.6098  139.2546  164.5479 C.ar    1  UNL1        0.0991
     28 N         142.3838  138.1937  163.5118 N.ar    1  UNL1       -0.2400
     29 C         143.0330  138.3107  162.1647 C.ar    1  UNL1        0.1282
     30 C         143.9082  139.4886  161.8536 C.ar    1  UNL1        0.1590
     31 F         144.5573  139.6056  160.5064 F       1  UNL1       -0.2027
     32 C         144.1341  140.5495  162.8897 C.ar    1  UNL1        0.0538
     33 C         143.4848  140.4324  164.2369 C.ar    1  UNL1        0.1025
     34 N         143.7107  141.4933  165.2730 N.ar    1  UNL1       -0.2103
     35 C         143.2006  142.0929  169.1135 C.3     1  UNL1        0.2542
     36 O         143.2875  142.4372  167.6562 O.3     1  UNL1       -0.4561
@<TRIPOS>BOND
     1    35    36    1
     2    36    24    1
     3    24    25   ar
     4    25    26   ar
     5    26    27   ar
     6    27    28   ar
     7    28    29   ar
     8    29    30   ar
     9    30    31    1
    10    30    32   ar
    11    32    21    1
    12    21    22    1
    13    21    20    1
    14    20     1    1
    15     1     2    1
    16     2     3    1
    17     3     4    1
    18     4     7    1
    19     7     9    1
    20     9    10    1
    21    10    11   ar
    22    11    12   ar
    23    12    13   ar
    24    13    14   ar
    25    14    15   ar
    26    13    16    1
    27    16    17    1
    28    17    18    1
    29    18    19    1
    30     4     5    1
    31     5     6    1
    32    32    33   ar
    33    33    34   ar
    34    34    24   ar
    35    33    27   ar
    36     6     1    1
    37    15    10   ar
    38    19    12    1
    39    22    23    1
    40     7     8    1
@<TRIPOS>MOLECULE
*****
 36 40 0 0 0
SMALL
GASTEIGER

@<TRIPOS>ATOM
      1 N         143.1660  143.6368  164.3627 N.3     1  UNL1       -0.2703
      2 C         142.8321  144.6994  163.3580 C.3     1  UNL1        0.0736
      3 C         141.4299  145.2224  163.2574 C.3     1  UNL1        0.0331
      4 C         140.3615  144.6828  164.1616 C.3     1  UNL1        0.0570
      5 C         140.6954  143.6203  165.1663 C.3     1  UNL1        0.0331
      6 C         142.0977  143.0973  165.2669 C.3     1  UNL1        0.0736
      7 N         138.9592  145.2058  164.0610 N.3     1  UNL1       -0.2934
      8 H         138.9683  145.9381  163.3511 H       1  UNL1        0.1236
      9 C         137.8354  144.2764  163.7100 C.3     1  UNL1        0.1152
     10 C         138.0892  143.0945  162.8221 C.ar    1  UNL1        0.0782
     11 C         138.0452  141.7067  163.3897 C.ar    1  UNL1        0.0562
     12 C         138.2991  140.5247  162.5016 C.ar    1  UNL1        0.1752
     13 C         138.5969  140.7306  161.0460 C.ar    1  UNL1        0.1914
     14 C         138.6409  142.1183  160.4784 C.ar    1  UNL1        0.1384
     15 N         138.3871  143.3002  161.3663 N.ar    1  UNL1       -0.2434
     16 O         138.8507  139.5486  160.1579 O.3     1  UNL1       -0.4668
     17 C         138.8067  138.1608  160.7255 C.3     1  UNL1        0.2527
     18 C         138.5089  137.9551  162.1813 C.3     1  UNL1        0.2526
     19 O         138.2551  139.1370  163.0692 O.3     1  UNL1       -0.4683
     20 C         144.5682  143.1138  164.4633 C.3     1  UNL1        0.1064
     21 C         145.0394  142.0449  163.5222 C.3     1  UNL1        0.1523
     22 O         146.5056  141.8722  163.2570 O.3     1  UNL1       -0.3785
     23 H         147.0061  142.5267  163.7689 H       1  UNL1        0.2108
     24 C         143.0724  138.7214  165.8320 C.ar    1  UNL1        0.2250
     25 C         142.0773  137.8252  165.1562 C.ar    1  UNL1        0.0593
     26 C         141.7379  138.0369  163.7106 C.ar    1  UNL1        0.0254
     27 C         142.3935  139.1447  162.9407 C.ar    1  UNL1        0.0991
     28 N         142.0541  139.3564  161.4950 N.ar    1  UNL1       -0.2400
     29 C         142.7097  140.4642  160.7251 C.ar    1  UNL1        0.1282
     30 C         143.7049  141.3604  161.4008 C.ar    1  UNL1        0.1590
     31 F         144.3605  142.4683  160.6309 F       1  UNL1       -0.2027
     32 C         144.0443  141.1488  162.8465 C.ar    1  UNL1        0.0538
     33 C         143.3886  140.0409  163.6164 C.ar    1  UNL1        0.1025
     34 N         143.7280  139.8292  165.0621 N.ar    1  UNL1       -0.2103
     35 C         142.7144  139.3107  168.3369 C.3     1  UNL1        0.2542
     36 O         143.4118  138.5097  167.2777 O.3     1  UNL1       -0.4561
@<TRIPOS>BOND
     1    35    36    1
     2    36    24    1
     3    24    25   ar
     4    25    26   ar
     5    26    27   ar
     6    27    28   ar
     7    28    29   ar
     8    29    30   ar
     9    30    31    1
    10    30    32   ar
    11    32    21    1
    12    21    22    1
    13    21    20    1
    14    20     1    1
    15     1     2    1
    16     2     3    1
    17     3     4    1
    18     4     7    1
    19     7     9    1
    20     9    10    1
    21    10    11   ar
    22    11    12   ar
    23    12    13   ar
    24    13    14   ar
    25    14    15   ar
    26    13    16    1
    27    16    17    1
    28    17    18    1
    29    18    19    1
    30     4     5    1
    31     5     6    1
    32    32    33   ar
    33    33    34   ar
    34    34    24   ar
    35    33    27   ar
    36     6     1    1
    37    15    10   ar
    38    19    12    1
    39    22    23    1
    40     7     8    1
@<TRIPOS>MOLECULE
*****
 36 40 0 0 0
SMALL
GASTEIGER

@<TRIPOS>ATOM
      1 N         142.5713  144.4808  163.3526 N.3     1  UNL1       -0.2703
      2 C         142.4165  144.1059  161.9085 C.3     1  UNL1        0.0736
      3 C         141.0479  143.9040  161.3286 C.3     1  UNL1        0.0331
      4 C         139.8341  144.0770  162.1929 C.3     1  UNL1        0.0570
      5 C         139.9890  144.4519  163.6370 C.3     1  UNL1        0.0331
      6 C         141.3576  144.6538  164.2169 C.3     1  UNL1        0.0736
      7 N         138.4656  143.8751  161.6130 N.3     1  UNL1       -0.2934
      8 H         138.3476  144.5795  160.8847 H       1  UNL1        0.1236
      9 C         138.0968  142.5554  161.0028 C.3     1  UNL1        0.1152
     10 C         138.3004  141.2876  161.7782 C.ar    1  UNL1        0.0782
     11 C         138.0262  141.2579  163.2526 C.ar    1  UNL1        0.0562
     12 C         138.2298  139.9900  164.0279 C.ar    1  UNL1        0.1752
     13 C         138.7076  138.7519  163.3288 C.ar    1  UNL1        0.1914
     14 C         138.9817  138.7816  161.8544 C.ar    1  UNL1        0.1384
     15 N         138.7782  140.0494  161.0791 N.ar    1  UNL1       -0.2434
     16 O         138.9112  137.4840  164.1042 O.3     1  UNL1       -0.4668
     17 C         138.6370  137.4543  165.5786 C.3     1  UNL1        0.2527
     18 C         138.1593  138.6925  166.2777 C.3     1  UNL1        0.2526
     19 O         137.9557  139.9603  165.5024 O.3     1  UNL1       -0.4683
     20 C         143.9398  144.6827  163.9325 C.3     1  UNL1        0.1064
     21 C         144.4763  143.7135  164.9439 C.3     1  UNL1        0.1523
     22 O         145.2424  144.2161  166.1316 O.3     1  UNL1       -0.3785
     23 H         145.2995  145.1837  166.0936 H       1  UNL1        0.2108
     24 C         142.0743  141.4306  167.9884 C.ar    1  UNL1        0.2250
     25 C         141.8447  139.9588  167.8121 C.ar    1  UNL1        0.0593
     26 C         142.4157  139.2480  166.6211 C.ar    1  UNL1        0.0254
     27 C         143.2164  140.0089  165.6063 C.ar    1  UNL1        0.0991
     28 N         143.7875  139.2981  164.4152 N.ar    1  UNL1       -0.2400
     29 C         144.5881  140.0590  163.4004 C.ar    1  UNL1        0.1282
     30 C         144.8178  141.5309  163.5766 C.ar    1  UNL1        0.1590
     31 F         145.6184  142.2918  162.5618 F       1  UNL1       -0.2027
     32 C         144.2467  142.2417  164.7677 C.ar    1  UNL1        0.0538
     33 C         143.4460  141.4807  165.7825 C.ar    1  UNL1        0.1025
     34 N         142.8750  142.1915  166.9736 N.ar    1  UNL1       -0.2103
     35 C         140.4765  143.2182  168.9891 C.3     1  UNL1        0.2542
     36 O         141.5032  142.1414  169.1794 O.3     1  UNL1       -0.4561
@<TRIPOS>BOND
     1    35    36    1
     2    36    24    1
     3    24    25   ar
     4    25    26   ar
     5    26    27   ar
     6    27    28   ar
     7    28    29   ar
     8    29    30   ar
     9    30    31    1
    10    30    32   ar
    11    32    21    1
    12    21    22    1
    13    21    20    1
    14    20     1    1
    15     1     2    1
    16     2     3    1
    17     3     4    1
    18     4     7    1
    19     7     9    1
    20     9    10    1
    21    10    11   ar
    22    11    12   ar
    23    12    13   ar
    24    13    14   ar
    25    14    15   ar
    26    13    16    1
    27    16    17    1
    28    17    18    1
    29    18    19    1
    30     4     5    1
    31     5     6    1
    32    32    33   ar
    33    33    34   ar
    34    34    24   ar
    35    33    27   ar
    36     6     1    1
    37    15    10   ar
    38    19    12    1
    39    22    23    1
    40     7     8    1
