@<TRIPOS>MOLECULE
*****
 28 30 0 0 0
SMALL
GASTEIGER

@<TRIPOS>ATOM
      1 C         139.8660  140.4715  169.7825 C.ar    1  UNL1        0.0717
      2 C         140.2822  140.9464  171.1430 C.ar    1  UNL1        0.0249
      3 C         141.5521  141.7275  171.3087 C.ar    1  UNL1        0.0818
      4 N         142.4057  142.0336  170.1139 N.ar    1  UNL1       -0.2852
      5 C         143.7003  142.7773  169.9693 C.ar    1  UNL1        0.1829
      6 N         144.0841  142.7620  168.5193 N.ar    1  UNL1       -0.2220
      7 C         143.0268  142.0088  167.7678 C.ar    1  UNL1        0.1194
      8 C         141.9894  141.5586  168.7533 C.ar    1  UNL1        0.0981
      9 C         140.7196  140.7776  168.5876 C.ar    1  UNL1        0.0708
     10 O         138.2399  139.1132  168.2789 O.2     1  UNL1       -0.2680
     11 C         138.5962  139.6904  169.6167 C.2     1  UNL1        0.2692
     12 N         137.6826  139.4866  170.7888 N.am    1  UNL1       -0.1896
     13 H         137.9165  139.8654  171.6669 H       1  UNL1        0.1828
     14 O         136.4128  138.7055  170.6231 O.3     1  UNL1       -0.2635
     15 C         135.6527  138.2445  171.8314 C.3     1  UNL1        0.2026
     16 C         136.1846  137.1183  172.6673 C.3     1  UNL1        0.1719
     17 O         137.3479  136.3067  172.1793 O.3     1  UNL1       -0.3794
     18 H         137.0871  135.8117  171.3869 H       1  UNL1        0.2105
     19 N         140.3033  140.3026  167.2270 N.pl3   1  UNL1       -0.3095
     20 H         140.4107  139.3550  166.9823 H       1  UNL1        0.1523
     21 C         139.7235  141.2713  166.2394 C.ar    1  UNL1        0.0762
     22 C         140.0976  142.7224  166.3041 C.ar    1  UNL1        0.0173
     23 C         139.5177  143.6912  165.3164 C.ar    1  UNL1        0.0072
     24 C         138.5638  143.2087  164.2641 C.ar    1  UNL1        0.0324
     25 I         137.9839  144.1773  163.2765 I       1  UNL1       -0.0424
     26 C         138.1897  141.7575  164.1995 C.ar    1  UNL1        0.0367
     27 C         138.7696  140.7888  165.1871 C.ar    1  UNL1        0.1538
     28 F         138.3955  139.3376  165.1225 F       1  UNL1       -0.2028
@<TRIPOS>BOND
     1    10    11    2
     2    11    12   am
     3    12    14    1
     4    14    15    1
     5    15    16    1
     6    16    17    1
     7    11     1    1
     8     1     2   ar
     9     2     3   ar
    10     3     4   ar
    11     4     5   ar
    12     5     6   ar
    13     6     7   ar
    14     7     8   ar
    15     8     9   ar
    16     9    19    1
    17    19    21    1
    18    21    22   ar
    19    22    23   ar
    20    23    24   ar
    21    24    25    1
    22    24    26   ar
    23    26    27   ar
    24    27    28    1
    25     9     1   ar
    26    27    21   ar
    27     8     4   ar
    28    12    13    1
    29    17    18    1
    30    19    20    1
@<TRIPOS>MOLECULE
*****
 28 30 0 0 0
SMALL
GASTEIGER

@<TRIPOS>ATOM
      1 C         139.1986  139.1648  165.6074 C.ar    1  UNL1        0.0717
      2 C         139.0991  137.7546  165.1062 C.ar    1  UNL1        0.0249
      3 C         138.6120  137.4864  163.7130 C.ar    1  UNL1        0.0818
      4 N         138.2243  138.6285  162.8212 N.ar    1  UNL1       -0.2852
      5 C         137.7132  138.6725  161.4117 C.ar    1  UNL1        0.1829
      6 N         137.4968  140.1100  161.0418 N.ar    1  UNL1       -0.2220
      7 C         137.8742  140.9544  162.2228 C.ar    1  UNL1        0.1194
      8 C         138.3238  140.0387  163.3225 C.ar    1  UNL1        0.0981
      9 C         138.8110  140.3069  164.7157 C.ar    1  UNL1        0.0708
     10 O         141.1513  139.6198  167.2597 O.2     1  UNL1       -0.2680
     11 C         139.6858  139.4330  167.0006 C.2     1  UNL1        0.2692
     12 N         138.7073  139.5144  168.1346 N.am    1  UNL1       -0.1896
     13 H         137.7454  139.3918  167.9645 H       1  UNL1        0.1828
     14 O         139.1944  139.7826  169.5277 O.3     1  UNL1       -0.2635
     15 C         139.5595  141.1783  169.9389 C.3     1  UNL1        0.2026
     16 C         140.7049  141.4073  170.8799 C.3     1  UNL1        0.1719
     17 O         140.4875  142.1668  172.1551 O.3     1  UNL1       -0.3794
     18 H         140.2604  143.0869  171.9487 H       1  UNL1        0.2105
     19 N         138.9105  141.7171  165.2170 N.pl3   1  UNL1       -0.3095
     20 H         138.2079  142.0823  165.8020 H       1  UNL1        0.1523
     21 C         140.0806  142.5710  164.8270 C.ar    1  UNL1        0.0762
     22 C         141.4638  141.9908  164.8224 C.ar    1  UNL1        0.0173
     23 C         142.6339  142.8446  164.4324 C.ar    1  UNL1        0.0072
     24 C         142.4206  144.2785  164.0470 C.ar    1  UNL1        0.0324
     25 I         143.5906  145.1323  163.6571 I       1  UNL1       -0.0424
     26 C         141.0373  144.8586  164.0517 C.ar    1  UNL1        0.0367
     27 C         139.8673  144.0048  164.4416 C.ar    1  UNL1        0.1538
     28 F         138.4840  144.5850  164.4463 F       1  UNL1       -0.2028
@<TRIPOS>BOND
     1    10    11    2
     2    11    12   am
     3    12    14    1
     4    14    15    1
     5    15    16    1
     6    16    17    1
     7    11     1    1
     8     1     2   ar
     9     2     3   ar
    10     3     4   ar
    11     4     5   ar
    12     5     6   ar
    13     6     7   ar
    14     7     8   ar
    15     8     9   ar
    16     9    19    1
    17    19    21    1
    18    21    22   ar
    19    22    23   ar
    20    23    24   ar
    21    24    25    1
    22    24    26   ar
    23    26    27   ar
    24    27    28    1
    25     9     1   ar
    26    27    21   ar
    27     8     4   ar
    28    12    13    1
    29    17    18    1
    30    19    20    1
@<TRIPOS>MOLECULE
*****
 28 30 0 0 0
SMALL
GASTEIGER

@<TRIPOS>ATOM
      1 C         139.8778  140.2333  169.7389 C.ar    1  UNL1        0.0717
      2 C         140.6396  140.1213  171.0261 C.ar    1  UNL1        0.0249
      3 C         141.9842  140.7724  171.1610 C.ar    1  UNL1        0.0818
      4 N         142.5670  141.5354  170.0086 N.ar    1  UNL1       -0.2852
      5 C         143.8608  142.2772  169.8477 C.ar    1  UNL1        0.1829
      6 N         143.8985  142.8477  168.4609 N.ar    1  UNL1       -0.2220
      7 C         142.6281  142.4584  167.7648 C.ar    1  UNL1        0.1194
      8 C         141.8052  141.6474  168.7213 C.ar    1  UNL1        0.0981
      9 C         140.4606  140.9964  168.5865 C.ar    1  UNL1        0.0708
     10 O         138.0412  139.1498  168.2547 O.2     1  UNL1       -0.2680
     11 C         138.5331  139.5823  169.6040 C.2     1  UNL1        0.2692
     12 N         137.6805  139.3638  170.8186 N.am    1  UNL1       -0.1896
     13 H         138.0034  139.6477  171.7042 H       1  UNL1        0.1828
     14 O         136.3359  138.7128  170.6837 O.3     1  UNL1       -0.2635
     15 C         135.5859  138.2799  171.9086 C.3     1  UNL1        0.2026
     16 C         136.1674  137.2343  172.8134 C.3     1  UNL1        0.1719
     17 O         135.8092  135.7907  172.6186 O.3     1  UNL1       -0.3794
     18 H         134.8665  135.6631  172.8078 H       1  UNL1        0.2105
     19 N         139.6988  141.1084  167.2992 N.pl3   1  UNL1       -0.3095
     20 H         138.9397  141.7313  167.2290 H       1  UNL1        0.1523
     21 C         140.0936  140.2712  166.1187 C.ar    1  UNL1        0.0762
     22 C         141.3398  139.4381  166.1734 C.ar    1  UNL1        0.0173
     23 C         141.7346  138.6009  164.9930 C.ar    1  UNL1        0.0072
     24 C         140.8831  138.5969  163.7580 C.ar    1  UNL1        0.0324
     25 I         141.2779  137.7597  162.5776 I       1  UNL1       -0.0424
     26 C         139.6370  139.4300  163.7035 C.ar    1  UNL1        0.0367
     27 C         139.2422  140.2671  164.8838 C.ar    1  UNL1        0.1538
     28 F         137.9960  141.1002  164.8292 F       1  UNL1       -0.2028
@<TRIPOS>BOND
     1    10    11    2
     2    11    12   am
     3    12    14    1
     4    14    15    1
     5    15    16    1
     6    16    17    1
     7    11     1    1
     8     1     2   ar
     9     2     3   ar
    10     3     4   ar
    11     4     5   ar
    12     5     6   ar
    13     6     7   ar
    14     7     8   ar
    15     8     9   ar
    16     9    19    1
    17    19    21    1
    18    21    22   ar
    19    22    23   ar
    20    23    24   ar
    21    24    25    1
    22    24    26   ar
    23    26    27   ar
    24    27    28    1
    25     9     1   ar
    26    27    21   ar
    27     8     4   ar
    28    12    13    1
    29    17    18    1
    30    19    20    1
@<TRIPOS>MOLECULE
*****
 28 30 0 0 0
SMALL
GASTEIGER

@<TRIPOS>ATOM
      1 C         139.6405  139.6429  167.3067 C.ar    1  UNL1        0.0717
      2 C         138.2768  139.0473  167.1189 C.ar    1  UNL1        0.0249
      3 C         137.9720  138.2443  165.8891 C.ar    1  UNL1        0.0818
      4 N         139.0310  138.0369  164.8472 N.ar    1  UNL1       -0.2852
      5 C         139.0236  137.2981  163.5419 C.ar    1  UNL1        0.1829
      6 N         140.3829  137.4371  162.9230 N.ar    1  UNL1       -0.2220
      7 C         141.2303  138.2618  163.8458 C.ar    1  UNL1        0.1194
      8 C         140.3948  138.6326  165.0351 C.ar    1  UNL1        0.0981
      9 C         140.6995  139.4356  166.2649 C.ar    1  UNL1        0.0708
     10 O         140.2103  141.9181  168.4244 O.2     1  UNL1       -0.2680
     11 C         139.9454  140.4460  168.5365 C.2     1  UNL1        0.2692
     12 N         139.9852  139.7768  169.8783 N.am    1  UNL1       -0.1896
     13 H         139.8113  138.8106  169.9519 H       1  UNL1        0.1828
     14 O         140.2900  140.5798  171.1081 O.3     1  UNL1       -0.2635
     15 C         141.7053  140.9682  171.4185 C.3     1  UNL1        0.2026
     16 C         142.8384  140.3387  170.6638 C.3     1  UNL1        0.1719
     17 O         143.8990  139.5763  171.4016 O.3     1  UNL1       -0.3794
     18 H         144.3992  140.1844  171.9682 H       1  UNL1        0.2105
     19 N         142.0633  140.0312  166.4528 N.pl3   1  UNL1       -0.3095
     20 H         142.6636  139.6772  167.1482 H       1  UNL1        0.1523
     21 C         142.5126  141.1664  165.5811 C.ar    1  UNL1        0.0762
     22 C         141.6739  142.4052  165.4715 C.ar    1  UNL1        0.0173
     23 C         142.1231  143.5403  164.5998 C.ar    1  UNL1        0.0072
     24 C         143.4110  143.4365  163.8378 C.ar    1  UNL1        0.0324
     25 I         143.8602  144.5716  162.9661 I       1  UNL1       -0.0424
     26 C         144.2496  142.1977  163.9474 C.ar    1  UNL1        0.0367
     27 C         143.8003  141.0627  164.8191 C.ar    1  UNL1        0.1538
     28 F         144.6390  139.8238  164.9287 F       1  UNL1       -0.2028
@<TRIPOS>BOND
     1    10    11    2
     2    11    12   am
     3    12    14    1
     4    14    15    1
     5    15    16    1
     6    16    17    1
     7    11     1    1
     8     1     2   ar
     9     2     3   ar
    10     3     4   ar
    11     4     5   ar
    12     5     6   ar
    13     6     7   ar
    14     7     8   ar
    15     8     9   ar
    16     9    19    1
    17    19    21    1
    18    21    22   ar
    19    22    23   ar
    20    23    24   ar
    21    24    25    1
    22    24    26   ar
    23    26    27   ar
    24    27    28    1
    25     9     1   ar
    26    27    21   ar
    27     8     4   ar
    28    12    13    1
    29    17    18    1
    30    19    20    1
@<TRIPOS>MOLECULE
*****
 28 30 0 0 0
SMALL
GASTEIGER

@<TRIPOS>ATOM
      1 C         139.9262  140.1277  166.9954 C.ar    1  UNL1        0.0717
      2 C         139.0012  139.6812  168.0885 C.ar    1  UNL1        0.0249
      3 C         139.0799  140.3181  169.4444 C.ar    1  UNL1        0.0818
      4 N         140.0836  141.4014  169.7070 N.ar    1  UNL1       -0.2852
      5 C         140.3920  142.2080  170.9335 C.ar    1  UNL1        0.1829
      6 N         141.5077  143.1530  170.5983 N.ar    1  UNL1       -0.2220
      7 C         141.8887  142.9304  169.1647 C.ar    1  UNL1        0.1194
      8 C         141.0086  141.8479  168.6138 C.ar    1  UNL1        0.0981
      9 C         140.9299  141.2110  167.2580 C.ar    1  UNL1        0.0708
     10 O         141.1045  139.1015  164.9197 O.2     1  UNL1       -0.2680
     11 C         139.8475  139.4908  165.6395 C.2     1  UNL1        0.2692
     12 N         138.5118  139.2433  165.0036 N.am    1  UNL1       -0.1896
     13 H         137.6867  139.4988  165.4761 H       1  UNL1        0.1828
     14 O         138.4331  138.6065  163.6478 O.3     1  UNL1       -0.2635
     15 C         138.1045  139.4407  162.4452 C.3     1  UNL1        0.2026
     16 C         137.8393  140.9089  162.6008 C.3     1  UNL1        0.1719
     17 O         136.5964  141.3766  163.2985 O.3     1  UNL1       -0.3794
     18 H         135.8185  141.1255  162.7763 H       1  UNL1        0.2105
     19 N         141.8549  141.6575  166.1648 N.pl3   1  UNL1       -0.3095
     20 H         142.7683  141.2938  166.1138 H       1  UNL1        0.1523
     21 C         141.3881  142.6580  165.1493 C.ar    1  UNL1        0.0762
     22 C         140.1287  143.4371  165.3882 C.ar    1  UNL1        0.0173
     23 C         139.6619  144.4377  164.3727 C.ar    1  UNL1        0.0072
     24 C         140.4545  144.6590  163.1185 C.ar    1  UNL1        0.0324
     25 I         139.9877  145.6595  162.1031 I       1  UNL1       -0.0424
     26 C         141.7138  143.8798  162.8798 C.ar    1  UNL1        0.0367
     27 C         142.1806  142.8793  163.8952 C.ar    1  UNL1        0.1538
     28 F         143.4399  142.1002  163.6565 F       1  UNL1       -0.2028
@<TRIPOS>BOND
     1    10    11    2
     2    11    12   am
     3    12    14    1
     4    14    15    1
     5    15    16    1
     6    16    17    1
     7    11     1    1
     8     1     2   ar
     9     2     3   ar
    10     3     4   ar
    11     4     5   ar
    12     5     6   ar
    13     6     7   ar
    14     7     8   ar
    15     8     9   ar
    16     9    19    1
    17    19    21    1
    18    21    22   ar
    19    22    23   ar
    20    23    24   ar
    21    24    25    1
    22    24    26   ar
    23    26    27   ar
    24    27    28    1
    25     9     1   ar
    26    27    21   ar
    27     8     4   ar
    28    12    13    1
    29    17    18    1
    30    19    20    1
@<TRIPOS>MOLECULE
*****
 28 30 0 0 0
SMALL
GASTEIGER

@<TRIPOS>ATOM
      1 C         138.6185  138.7528  165.5692 C.ar    1  UNL1        0.0717
      2 C         139.0562  137.3815  165.1478 C.ar    1  UNL1        0.0249
      3 C         139.1654  137.0438  163.6903 C.ar    1  UNL1        0.0818
      4 N         138.8368  138.0776  162.6544 N.ar    1  UNL1       -0.2852
      5 C         138.8515  138.0361  161.1550 C.ar    1  UNL1        0.1829
      6 N         138.4229  139.3819  160.6498 N.ar    1  UNL1       -0.2220
      7 C         138.1432  140.2551  161.8369 C.ar    1  UNL1        0.1194
      8 C         138.3990  139.4491  163.0758 C.ar    1  UNL1        0.0981
      9 C         138.2899  139.7866  164.5333 C.ar    1  UNL1        0.0708
     10 O         137.3780  138.5380  167.8419 O.2     1  UNL1       -0.2680
     11 C         138.5093  139.0905  167.0267 C.2     1  UNL1        0.2692
     12 N         139.5317  139.9807  167.6688 N.am    1  UNL1       -0.1896
     13 H         140.2743  140.3433  167.1338 H       1  UNL1        0.1828
     14 O         139.4226  140.3184  169.1262 O.3     1  UNL1       -0.2635
     15 C         140.0196  141.5919  169.6478 C.3     1  UNL1        0.2026
     16 C         140.9559  141.5565  170.8192 C.3     1  UNL1        0.1719
     17 O         140.6669  140.6555  171.9833 O.3     1  UNL1       -0.3794
     18 H         139.8590  140.9535  172.4300 H       1  UNL1        0.2105
     19 N         137.8521  141.1580  164.9547 N.pl3   1  UNL1       -0.3095
     20 H         137.2162  141.2648  165.6987 H       1  UNL1        0.1523
     21 C         138.3833  142.3668  164.2427 C.ar    1  UNL1        0.0762
     22 C         137.4404  143.2969  163.5386 C.ar    1  UNL1        0.0173
     23 C         137.9715  144.5057  162.8265 C.ar    1  UNL1        0.0072
     24 C         139.4454  144.7841  162.8186 C.ar    1  UNL1        0.0324
     25 I         139.9766  145.9928  162.1066 I       1  UNL1       -0.0424
     26 C         140.3882  143.8539  163.5227 C.ar    1  UNL1        0.0367
     27 C         139.8571  142.6453  164.2348 C.ar    1  UNL1        0.1538
     28 F         140.8000  141.7150  164.9389 F       1  UNL1       -0.2028
@<TRIPOS>BOND
     1    10    11    2
     2    11    12   am
     3    12    14    1
     4    14    15    1
     5    15    16    1
     6    16    17    1
     7    11     1    1
     8     1     2   ar
     9     2     3   ar
    10     3     4   ar
    11     4     5   ar
    12     5     6   ar
    13     6     7   ar
    14     7     8   ar
    15     8     9   ar
    16     9    19    1
    17    19    21    1
    18    21    22   ar
    19    22    23   ar
    20    23    24   ar
    21    24    25    1
    22    24    26   ar
    23    26    27   ar
    24    27    28    1
    25     9     1   ar
    26    27    21   ar
    27     8     4   ar
    28    12    13    1
    29    17    18    1
    30    19    20    1
@<TRIPOS>MOLECULE
*****
 28 30 0 0 0
SMALL
GASTEIGER

@<TRIPOS>ATOM
      1 C         140.7995  142.5759  166.8926 C.ar    1  UNL1        0.0717
      2 C         140.3554  143.0339  168.2501 C.ar    1  UNL1        0.0249
      3 C         140.7314  142.2436  169.4685 C.ar    1  UNL1        0.0818
      4 N         141.5515  140.9955  169.3291 N.ar    1  UNL1       -0.2852
      5 C         142.0710  140.0177  170.3411 C.ar    1  UNL1        0.1829
      6 N         142.8362  138.9555  169.6089 N.ar    1  UNL1       -0.2220
      7 C         142.7896  139.2767  168.1444 C.ar    1  UNL1        0.1194
      8 C         141.9956  140.5375  167.9715 C.ar    1  UNL1        0.0981
      9 C         141.6196  141.3278  166.7533 C.ar    1  UNL1        0.0708
     10 O         141.4749  143.7518  164.6765 O.2     1  UNL1       -0.2680
     11 C         140.4235  143.3662  165.6743 C.2     1  UNL1        0.2692
     12 N         138.9960  143.7708  165.4539 N.am    1  UNL1       -0.1896
     13 H         138.3059  143.5177  166.1089 H       1  UNL1        0.1828
     14 O         138.6199  144.5610  164.2357 O.3     1  UNL1       -0.2635
     15 C         137.7797  143.9323  163.1638 C.3     1  UNL1        0.2026
     16 C         137.8693  142.4567  162.9095 C.3     1  UNL1        0.1719
     17 O         136.6705  141.5831  163.1328 O.3     1  UNL1       -0.3794
     18 H         136.4500  141.5720  164.0773 H       1  UNL1        0.2105
     19 N         142.0637  140.8698  165.3957 N.pl3   1  UNL1       -0.3095
     20 H         143.0025  140.9818  165.1211 H       1  UNL1        0.1523
     21 C         141.0774  140.2413  164.4563 C.ar    1  UNL1        0.0762
     22 C         139.9121  139.4686  164.9994 C.ar    1  UNL1        0.0173
     23 C         138.9257  138.8401  164.0601 C.ar    1  UNL1        0.0072
     24 C         139.1049  138.9843  162.5778 C.ar    1  UNL1        0.0324
     25 I         138.1186  138.3558  161.6385 I       1  UNL1       -0.0424
     26 C         140.2703  139.7570  162.0348 C.ar    1  UNL1        0.0367
     27 C         141.2565  140.3855  162.9741 C.ar    1  UNL1        0.1538
     28 F         142.4219  141.1582  162.4311 F       1  UNL1       -0.2028
@<TRIPOS>BOND
     1    10    11    2
     2    11    12   am
     3    12    14    1
     4    14    15    1
     5    15    16    1
     6    16    17    1
     7    11     1    1
     8     1     2   ar
     9     2     3   ar
    10     3     4   ar
    11     4     5   ar
    12     5     6   ar
    13     6     7   ar
    14     7     8   ar
    15     8     9   ar
    16     9    19    1
    17    19    21    1
    18    21    22   ar
    19    22    23   ar
    20    23    24   ar
    21    24    25    1
    22    24    26   ar
    23    26    27   ar
    24    27    28    1
    25     9     1   ar
    26    27    21   ar
    27     8     4   ar
    28    12    13    1
    29    17    18    1
    30    19    20    1
@<TRIPOS>MOLECULE
*****
 28 30 0 0 0
SMALL
GASTEIGER

@<TRIPOS>ATOM
      1 C         142.8193  139.9680  166.9026 C.ar    1  UNL1        0.0717
      2 C         142.7279  138.8387  167.8854 C.ar    1  UNL1        0.0249
      3 C         142.5065  139.1270  169.3408 C.ar    1  UNL1        0.0818
      4 N         142.3765  140.5447  169.8131 N.ar    1  UNL1       -0.2852
      5 C         142.1553  141.1325  171.1753 C.ar    1  UNL1        0.1829
      6 N         142.1100  142.6251  171.0343 N.ar    1  UNL1       -0.2220
      7 C         142.3033  142.9599  169.5849 C.ar    1  UNL1        0.1194
      8 C         142.4680  141.6741  168.8302 C.ar    1  UNL1        0.0981
      9 C         142.6894  141.3858  167.3749 C.ar    1  UNL1        0.0708
     10 O         141.8673  139.5332  164.5247 O.2     1  UNL1       -0.2680
     11 C         143.0408  139.6798  165.4472 C.2     1  UNL1        0.2692
     12 N         144.4358  139.5381  164.9146 N.am    1  UNL1       -0.1896
     13 H         145.2061  139.6343  165.5202 H       1  UNL1        0.1828
     14 O         144.6573  139.2498  163.4593 O.3     1  UNL1       -0.2635
     15 C         144.5439  140.3540  162.4503 C.3     1  UNL1        0.2026
     16 C         145.1204  141.7059  162.7501 C.3     1  UNL1        0.1719
     17 O         146.4649  141.8193  163.4056 O.3     1  UNL1       -0.3794
     18 H         146.4173  141.4599  164.3053 H       1  UNL1        0.2105
     19 N         142.7808  142.5152  166.3920 N.pl3   1  UNL1       -0.3095
     20 H         143.6282  143.0040  166.2813 H       1  UNL1        0.1523
     21 C         141.5811  142.8998  165.5778 C.ar    1  UNL1        0.0762
     22 C         140.2334  142.3341  165.9147 C.ar    1  UNL1        0.0173
     23 C         139.0337  142.7187  165.1005 C.ar    1  UNL1        0.0072
     24 C         139.1819  143.6691  163.9494 C.ar    1  UNL1        0.0324
     25 I         137.9823  144.0537  163.1352 I       1  UNL1       -0.0424
     26 C         140.5296  144.2347  163.6126 C.ar    1  UNL1        0.0367
     27 C         141.7293  143.8501  164.4268 C.ar    1  UNL1        0.1538
     28 F         143.0771  144.4158  164.0898 F       1  UNL1       -0.2028
@<TRIPOS>BOND
     1    10    11    2
     2    11    12   am
     3    12    14    1
     4    14    15    1
     5    15    16    1
     6    16    17    1
     7    11     1    1
     8     1     2   ar
     9     2     3   ar
    10     3     4   ar
    11     4     5   ar
    12     5     6   ar
    13     6     7   ar
    14     7     8   ar
    15     8     9   ar
    16     9    19    1
    17    19    21    1
    18    21    22   ar
    19    22    23   ar
    20    23    24   ar
    21    24    25    1
    22    24    26   ar
    23    26    27   ar
    24    27    28    1
    25     9     1   ar
    26    27    21   ar
    27     8     4   ar
    28    12    13    1
    29    17    18    1
    30    19    20    1
@<TRIPOS>MOLECULE
*****
 28 30 0 0 0
SMALL
GASTEIGER

@<TRIPOS>ATOM
      1 C         142.0411  140.0952  166.3822 C.ar    1  UNL1        0.0717
      2 C         142.7180  138.7914  166.0798 C.ar    1  UNL1        0.0249
      3 C         142.1113  137.8435  165.0881 C.ar    1  UNL1        0.0818
      4 N         140.8275  138.1997  164.3988 N.ar    1  UNL1       -0.2852
      5 C         139.9987  137.4719  163.3823 C.ar    1  UNL1        0.1829
      6 N         138.8095  138.3261  163.0565 N.ar    1  UNL1       -0.2220
      7 C         138.9033  139.5818  163.8716 C.ar    1  UNL1        0.1194
      8 C         140.1506  139.5037  164.7012 C.ar    1  UNL1        0.0981
      9 C         140.7574  140.4514  165.6930 C.ar    1  UNL1        0.0708
     10 O         143.1915  142.3632  166.9142 O.2     1  UNL1       -0.2680
     11 C         142.6479  141.0431  167.3740 C.2     1  UNL1        0.2692
     12 N         142.7110  140.6706  168.8256 N.am    1  UNL1       -0.1896
     13 H         142.3542  139.8041  169.1275 H       1  UNL1        0.1828
     14 O         143.3178  141.6183  169.8174 O.3     1  UNL1       -0.2635
     15 C         142.4487  142.6022  170.5433 C.3     1  UNL1        0.2026
     16 C         141.0160  142.7803  170.1362 C.3     1  UNL1        0.1719
     17 O         140.6775  143.1310  168.7175 O.3     1  UNL1       -0.3794
     18 H         141.0156  144.0171  168.5141 H       1  UNL1        0.2105
     19 N         140.0805  141.7554  165.9954 N.pl3   1  UNL1       -0.3095
     20 H         139.6899  141.9125  166.8854 H       1  UNL1        0.1523
     21 C         139.9987  142.8201  164.9419 C.ar    1  UNL1        0.0762
     22 C         141.2469  143.5038  164.4682 C.ar    1  UNL1        0.0173
     23 C         141.1651  144.5685  163.4146 C.ar    1  UNL1        0.0072
     24 C         139.8351  144.9494  162.8349 C.ar    1  UNL1        0.0324
     25 I         139.7533  146.0140  161.7814 I       1  UNL1       -0.0424
     26 C         138.5869  144.2656  163.3087 C.ar    1  UNL1        0.0367
     27 C         138.6688  143.2010  164.3622 C.ar    1  UNL1        0.1538
     28 F         137.4205  142.5172  164.8360 F       1  UNL1       -0.2028
@<TRIPOS>BOND
     1    10    11    2
     2    11    12   am
     3    12    14    1
     4    14    15    1
     5    15    16    1
     6    16    17    1
     7    11     1    1
     8     1     2   ar
     9     2     3   ar
    10     3     4   ar
    11     4     5   ar
    12     5     6   ar
    13     6     7   ar
    14     7     8   ar
    15     8     9   ar
    16     9    19    1
    17    19    21    1
    18    21    22   ar
    19    22    23   ar
    20    23    24   ar
    21    24    25    1
    22    24    26   ar
    23    26    27   ar
    24    27    28    1
    25     9     1   ar
    26    27    21   ar
    27     8     4   ar
    28    12    13    1
    29    17    18    1
    30    19    20    1
