@<TRIPOS>MOLECULE
*****
 39 43 0 0 0
SMALL
GASTEIGER

@<TRIPOS>ATOM
      1 C         139.4333  138.6650  160.3179 C.3     1  UNL1        0.2358
      2 C         138.6510  138.2650  161.5337 C.3     1  UNL1        0.1700
      3 O         137.1680  138.4855  161.5774 O.3     1  UNL1       -0.3793
      4 H         136.8769  138.8922  160.7462 H       1  UNL1        0.2106
      5 C         139.3518  137.6445  162.7058 C.3     1  UNL1        0.1056
      6 N         139.7527  138.4938  163.8756 N.3     1  UNL1       -0.2703
      7 C         138.7022  139.1611  164.7128 C.3     1  UNL1        0.0758
      8 C         139.1031  140.0103  165.8825 C.3     1  UNL1        0.0577
      9 C         140.5544  140.1922  166.2148 C.3     1  UNL1        0.1399
     10 C         141.6049  139.5248  165.3776 C.3     1  UNL1        0.0577
     11 C         141.2041  138.6756  164.2079 C.3     1  UNL1        0.0758
     12 C         141.9587  140.4646  166.6665 C.3     1  UNL1        0.0695
     13 C         141.8936  141.3589  167.8691 C.ar    1  UNL1        0.0161
     14 C         142.9629  141.9542  168.7363 C.ar    1  UNL1        0.0102
     15 C         142.5879  142.8298  169.8950 C.ar    1  UNL1        0.0576
     16 CL        143.6572  143.4250  170.7622 Cl      1  UNL1       -0.0823
     17 C         141.1434  143.1101  170.1865 C.ar    1  UNL1        0.0145
     18 C         140.0740  142.5148  169.3193 C.ar    1  UNL1        0.0374
     19 C         140.4491  141.6392  168.1606 C.ar    1  UNL1        0.1343
     20 O         139.6215  140.9182  167.1383 O.3     1  UNL1       -0.4825
     21 O         140.1188  139.9983  160.2723 O.3     1  UNL1       -0.4725
     22 C         142.0919  141.4864  161.0741 C.ar    1  UNL1        0.0877
     23 C         143.5058  141.6196  161.5569 C.ar    1  UNL1        0.0107
     24 C         144.3606  140.3979  161.7208 C.ar    1  UNL1        0.0370
     25 C         143.8015  139.0431  161.4019 C.ar    1  UNL1        0.1367
     26 O         144.6563  137.8214  161.5657 O.3     1  UNL1       -0.5054
     27 C         142.3875  138.9098  160.9190 C.ar    1  UNL1        0.0736
     28 C         141.5327  140.1315  160.7552 C.ar    1  UNL1        0.1460
     29 H         145.5395  137.9046  161.8673 H       1  UNL1        0.2922
     30 O         141.0389  143.3078  159.5497 O.2     1  UNL1       -0.2698
     31 C         141.2371  142.7081  160.9103 C.2     1  UNL1        0.2520
     32 N         140.5805  143.3301  162.1069 N.am    1  UNL1       -0.2758
     33 C         139.7257  144.5517  161.9430 C.3     1  UNL1        0.0962
     34 C         139.0692  145.1737  163.1397 C.3     1  UNL1        0.0508
     35 C         139.2674  144.5740  164.5003 C.3     1  UNL1        0.1139
     36 O         138.6108  145.1960  165.6969 O.3     1  UNL1       -0.3843
     37 C         140.1222  143.3524  164.6642 C.3     1  UNL1        0.0508
     38 C         140.7788  142.7304  163.4674 C.3     1  UNL1        0.0962
     39 H         138.0986  145.9712  165.4183 H       1  UNL1        0.2103
@<TRIPOS>BOND
     1    30    31    2
     2    31    22    1
     3    22    23   ar
     4    23    24   ar
     5    24    25   ar
     6    25    26    1
     7    25    27   ar
     8    27    28   ar
     9    28    21    1
    10    21     1    1
    11     1     2    1
    12     2     3    1
    13     2     5    1
    14     5     6    1
    15     6     7    1
    16     7     8    1
    17     8     9    1
    18     9    10    1
    19    10    11    1
    20     9    12    1
    21    12    13    1
    22    13    14   ar
    23    14    15   ar
    24    15    16    1
    25    15    17   ar
    26    17    18   ar
    27    18    19   ar
    28    19    20    1
    29    31    32   am
    30    32    33    1
    31    33    34    1
    32    34    35    1
    33    35    36    1
    34    35    37    1
    35    37    38    1
    36    28    22   ar
    37    11     6    1
    38    19    13   ar
    39    38    32    1
    40    20     9    1
    41    26    29    1
    42     3     4    1
    43    36    39    1
@<TRIPOS>MOLECULE
*****
 39 43 0 0 0
SMALL
GASTEIGER

@<TRIPOS>ATOM
      1 C         144.2776  142.5059  164.5949 C.3     1  UNL1        0.2358
      2 C         145.0349  141.4785  163.8068 C.3     1  UNL1        0.1700
      3 O         146.3810  141.8135  163.2362 O.3     1  UNL1       -0.3793
      4 H         146.6119  142.7268  163.4671 H       1  UNL1        0.2106
      5 C         144.4460  140.1162  163.5894 C.3     1  UNL1        0.1056
      6 N         144.0396  139.6860  162.2110 N.3     1  UNL1       -0.2703
      7 C         143.7157  138.2468  161.9395 C.3     1  UNL1        0.0758
      8 C         143.3094  137.8166  160.5611 C.3     1  UNL1        0.0577
      9 C         143.2270  138.8257  159.4543 C.3     1  UNL1        0.1399
     10 C         143.5510  140.2649  159.7258 C.3     1  UNL1        0.0577
     11 C         143.9573  140.6950  161.1042 C.3     1  UNL1        0.0758
     12 C         143.1010  139.7164  158.2540 C.3     1  UNL1        0.0695
     13 C         142.6714  138.8705  157.0920 C.ar    1  UNL1        0.0161
     14 C         142.3893  139.2047  155.6573 C.ar    1  UNL1        0.0102
     15 C         141.9677  138.1254  154.7047 C.ar    1  UNL1        0.0576
     16 CL        141.6855  138.4596  153.2699 Cl      1  UNL1       -0.0823
     17 C         141.8282  136.7119  155.1869 C.ar    1  UNL1        0.0145
     18 C         142.1103  136.3777  156.6218 C.ar    1  UNL1        0.0374
     19 C         142.5320  137.4569  157.5743 C.ar    1  UNL1        0.1343
     20 O         142.8753  137.4293  159.0342 O.3     1  UNL1       -0.4825
     21 O         142.9377  142.1664  165.1775 O.3     1  UNL1       -0.4725
     22 C         140.3959  142.6527  165.4076 C.ar    1  UNL1        0.0877
     23 C         139.1990  143.4938  165.0759 C.ar    1  UNL1        0.0107
     24 C         139.3470  144.6896  164.1825 C.ar    1  UNL1        0.0370
     25 C         140.6918  145.0443  163.6208 C.ar    1  UNL1        0.1367
     26 O         140.8397  146.2401  162.7274 O.3     1  UNL1       -0.5054
     27 C         141.8888  144.2032  163.9524 C.ar    1  UNL1        0.0736
     28 C         141.7408  143.0074  164.8458 C.ar    1  UNL1        0.1460
     29 H         140.0920  146.7655  162.5202 H       1  UNL1        0.2922
     30 O         140.0331  140.0973  165.7048 O.2     1  UNL1       -0.2698
     31 C         140.2480  141.4569  166.3009 C.2     1  UNL1        0.2520
     32 N         140.3149  141.6206  167.7904 N.am    1  UNL1       -0.2758
     33 C         140.1670  140.4248  168.6838 C.3     1  UNL1        0.0962
     34 C         140.2340  140.5885  170.1733 C.3     1  UNL1        0.0508
     35 C         140.4489  141.9482  170.7695 C.3     1  UNL1        0.1139
     36 O         140.5159  142.1119  172.2590 O.3     1  UNL1       -0.3843
     37 C         140.5968  143.1440  169.8761 C.3     1  UNL1        0.0508
     38 C         140.5298  142.9802  168.3865 C.3     1  UNL1        0.0962
     39 H         140.4026  141.2477  172.6847 H       1  UNL1        0.2103
@<TRIPOS>BOND
     1    30    31    2
     2    31    22    1
     3    22    23   ar
     4    23    24   ar
     5    24    25   ar
     6    25    26    1
     7    25    27   ar
     8    27    28   ar
     9    28    21    1
    10    21     1    1
    11     1     2    1
    12     2     3    1
    13     2     5    1
    14     5     6    1
    15     6     7    1
    16     7     8    1
    17     8     9    1
    18     9    10    1
    19    10    11    1
    20     9    12    1
    21    12    13    1
    22    13    14   ar
    23    14    15   ar
    24    15    16    1
    25    15    17   ar
    26    17    18   ar
    27    18    19   ar
    28    19    20    1
    29    31    32   am
    30    32    33    1
    31    33    34    1
    32    34    35    1
    33    35    36    1
    34    35    37    1
    35    37    38    1
    36    28    22   ar
    37    11     6    1
    38    19    13   ar
    39    38    32    1
    40    20     9    1
    41    26    29    1
    42     3     4    1
    43    36    39    1
@<TRIPOS>MOLECULE
*****
 39 43 0 0 0
SMALL
GASTEIGER

@<TRIPOS>ATOM
      1 C         139.3126  139.8817  166.8296 C.3     1  UNL1        0.2358
      2 C         138.4218  138.8395  166.2211 C.3     1  UNL1        0.1700
      3 O         137.2933  138.2581  167.0201 O.3     1  UNL1       -0.3793
      4 H         137.2800  138.6618  167.9020 H       1  UNL1        0.2106
      5 C         138.6594  138.3788  164.8135 C.3     1  UNL1        0.1056
      6 N         139.1772  139.3417  163.7865 N.3     1  UNL1       -0.2703
      7 C         140.5614  139.1754  163.2330 C.3     1  UNL1        0.0758
      8 C         141.0791  140.1383  162.2060 C.3     1  UNL1        0.0577
      9 C         140.2127  141.2675  161.7325 C.3     1  UNL1        0.1399
     10 C         138.8286  141.4338  162.2860 C.3     1  UNL1        0.0577
     11 C         138.3108  140.4709  163.3130 C.3     1  UNL1        0.0758
     12 C         139.4658  142.4386  161.1663 C.3     1  UNL1        0.0695
     13 C         140.3598  143.1233  160.1752 C.ar    1  UNL1        0.0161
     14 C         140.1586  144.3312  159.3089 C.ar    1  UNL1        0.0102
     15 C         141.2566  144.7911  158.3964 C.ar    1  UNL1        0.0576
     16 CL        141.0554  145.9990  157.5301 Cl      1  UNL1       -0.0823
     17 C         142.5560  144.0431  158.3502 C.ar    1  UNL1        0.0145
     18 C         142.7573  142.8352  159.2165 C.ar    1  UNL1        0.0374
     19 C         141.6592  142.3753  160.1290 C.ar    1  UNL1        0.1343
     20 O         141.5683  141.2284  161.0914 O.3     1  UNL1       -0.4825
     21 O         140.8021  139.7083  166.7949 O.3     1  UNL1       -0.4725
     22 C         141.9893  141.8325  167.7051 C.ar    1  UNL1        0.0877
     23 C         142.8463  142.4988  168.7402 C.ar    1  UNL1        0.0107
     24 C         143.3730  141.7073  169.9004 C.ar    1  UNL1        0.0370
     25 C         143.0428  140.2495  170.0255 C.ar    1  UNL1        0.1367
     26 O         143.5695  139.4580  171.1857 O.3     1  UNL1       -0.5054
     27 C         142.1858  139.5831  168.9903 C.ar    1  UNL1        0.0736
     28 C         141.6591  140.3746  167.8301 C.ar    1  UNL1        0.1460
     29 H         144.1048  139.8742  171.8323 H       1  UNL1        0.2922
     30 O         140.0500  143.1284  166.5606 O.2     1  UNL1       -0.2698
     31 C         141.4626  142.6240  166.5448 C.2     1  UNL1        0.2520
     32 N         142.3485  142.9111  165.3689 N.am    1  UNL1       -0.2758
     33 C         141.8217  143.7026  164.2087 C.3     1  UNL1        0.0962
     34 C         142.7076  143.9897  163.0328 C.3     1  UNL1        0.0508
     35 C         144.1202  143.4853  163.0170 C.3     1  UNL1        0.1139
     36 O         145.0060  143.7724  161.8411 O.3     1  UNL1       -0.3843
     37 C         144.6469  142.6938  164.1772 C.3     1  UNL1        0.0508
     38 C         143.7610  142.4067  165.3532 C.3     1  UNL1        0.0962
     39 H         144.5143  144.2905  161.1848 H       1  UNL1        0.2103
@<TRIPOS>BOND
     1    30    31    2
     2    31    22    1
     3    22    23   ar
     4    23    24   ar
     5    24    25   ar
     6    25    26    1
     7    25    27   ar
     8    27    28   ar
     9    28    21    1
    10    21     1    1
    11     1     2    1
    12     2     3    1
    13     2     5    1
    14     5     6    1
    15     6     7    1
    16     7     8    1
    17     8     9    1
    18     9    10    1
    19    10    11    1
    20     9    12    1
    21    12    13    1
    22    13    14   ar
    23    14    15   ar
    24    15    16    1
    25    15    17   ar
    26    17    18   ar
    27    18    19   ar
    28    19    20    1
    29    31    32   am
    30    32    33    1
    31    33    34    1
    32    34    35    1
    33    35    36    1
    34    35    37    1
    35    37    38    1
    36    28    22   ar
    37    11     6    1
    38    19    13   ar
    39    38    32    1
    40    20     9    1
    41    26    29    1
    42     3     4    1
    43    36    39    1
@<TRIPOS>MOLECULE
*****
 39 43 0 0 0
SMALL
GASTEIGER

@<TRIPOS>ATOM
      1 C         143.7248  142.2701  165.5068 C.3     1  UNL1        0.2358
      2 C         144.4764  141.7135  164.3341 C.3     1  UNL1        0.1700
      3 O         145.9744  141.7849  164.3010 O.3     1  UNL1       -0.3793
      4 H         146.2954  142.2173  165.1078 H       1  UNL1        0.2106
      5 C         143.7302  141.0855  163.1945 C.3     1  UNL1        0.1056
      6 N         143.2181  141.9390  162.0722 N.3     1  UNL1       -0.2703
      7 C         143.9844  142.0252  160.7857 C.3     1  UNL1        0.0758
      8 C         143.4723  142.8787  159.6635 C.3     1  UNL1        0.0577
      9 C         142.1939  143.6459  159.8279 C.3     1  UNL1        0.1399
     10 C         141.4276  143.5596  161.1145 C.3     1  UNL1        0.0577
     11 C         141.9397  142.7062  162.2367 C.3     1  UNL1        0.0758
     12 C         140.9378  144.4656  159.8461 C.3     1  UNL1        0.0695
     13 C         140.8155  145.1559  158.5199 C.ar    1  UNL1        0.0161
     14 C         139.7818  146.0916  157.9669 C.ar    1  UNL1        0.0102
     15 C         139.9285  146.6341  156.5762 C.ar    1  UNL1        0.0576
     16 CL        138.8948  147.5698  156.0232 Cl      1  UNL1       -0.0823
     17 C         141.1090  146.2410  155.7384 C.ar    1  UNL1        0.0145
     18 C         142.1428  145.3053  156.2914 C.ar    1  UNL1        0.0374
     19 C         141.9961  144.7627  157.6821 C.ar    1  UNL1        0.1343
     20 O         142.8479  143.8295  158.4905 O.3     1  UNL1       -0.4825
     21 O         142.9985  141.3463  166.4391 O.3     1  UNL1       -0.4725
     22 C         140.8477  141.8357  167.8118 C.ar    1  UNL1        0.0877
     23 C         140.1893  142.3800  169.0448 C.ar    1  UNL1        0.0107
     24 C         141.0234  142.9790  170.1381 C.ar    1  UNL1        0.0370
     25 C         142.5158  143.0339  169.9985 C.ar    1  UNL1        0.1367
     26 O         143.3499  143.6330  171.0918 O.3     1  UNL1       -0.5054
     27 C         143.1743  142.4897  168.7654 C.ar    1  UNL1        0.0736
     28 C         142.3402  141.8906  167.6721 C.ar    1  UNL1        0.1460
     29 H         142.9387  143.9730  171.8620 H       1  UNL1        0.2922
     30 O         139.7672  139.7573  166.6881 O.2     1  UNL1       -0.2698
     31 C         140.0136  141.2366  166.7185 C.2     1  UNL1        0.2520
     32 N         139.4259  142.1168  165.6555 N.am    1  UNL1       -0.2758
     33 C         138.5918  141.5177  164.5622 C.3     1  UNL1        0.0962
     34 C         138.0042  142.3979  163.4993 C.3     1  UNL1        0.0508
     35 C         138.2506  143.8773  163.5296 C.3     1  UNL1        0.1139
     36 O         137.6629  144.7575  162.4667 O.3     1  UNL1       -0.3843
     37 C         139.0847  144.4764  164.6230 C.3     1  UNL1        0.0508
     38 C         139.6723  143.5961  165.6859 C.3     1  UNL1        0.0962
     39 H         137.1559  144.2156  161.8420 H       1  UNL1        0.2103
@<TRIPOS>BOND
     1    30    31    2
     2    31    22    1
     3    22    23   ar
     4    23    24   ar
     5    24    25   ar
     6    25    26    1
     7    25    27   ar
     8    27    28   ar
     9    28    21    1
    10    21     1    1
    11     1     2    1
    12     2     3    1
    13     2     5    1
    14     5     6    1
    15     6     7    1
    16     7     8    1
    17     8     9    1
    18     9    10    1
    19    10    11    1
    20     9    12    1
    21    12    13    1
    22    13    14   ar
    23    14    15   ar
    24    15    16    1
    25    15    17   ar
    26    17    18   ar
    27    18    19   ar
    28    19    20    1
    29    31    32   am
    30    32    33    1
    31    33    34    1
    32    34    35    1
    33    35    36    1
    34    35    37    1
    35    37    38    1
    36    28    22   ar
    37    11     6    1
    38    19    13   ar
    39    38    32    1
    40    20     9    1
    41    26    29    1
    42     3     4    1
    43    36    39    1
@<TRIPOS>MOLECULE
*****
 39 43 0 0 0
SMALL
GASTEIGER

@<TRIPOS>ATOM
      1 C         142.0143  142.7362  159.9827 C.3     1  UNL1        0.2358
      2 C         143.4487  143.0643  159.6913 C.3     1  UNL1        0.1700
      3 O         143.8083  143.8106  158.4408 O.3     1  UNL1       -0.3793
      4 H         143.0026  144.0031  157.9362 H       1  UNL1        0.2106
      5 C         144.5235  142.6461  160.6505 C.3     1  UNL1        0.1056
      6 N         144.1751  142.3250  162.0737 N.3     1  UNL1       -0.2703
      7 C         144.0195  140.8964  162.5038 C.3     1  UNL1        0.0758
      8 C         143.6712  140.5753  163.9269 C.3     1  UNL1        0.0577
      9 C         143.4785  141.6828  164.9201 C.3     1  UNL1        0.1399
     10 C         143.6340  143.1113  164.4901 C.3     1  UNL1        0.0577
     11 C         143.9824  143.4324  163.0669 C.3     1  UNL1        0.0758
     12 C         143.2564  142.6786  166.0197 C.3     1  UNL1        0.0695
     13 C         142.9317  141.9207  167.2729 C.ar    1  UNL1        0.0161
     14 C         142.6193  142.3747  168.6679 C.ar    1  UNL1        0.0102
     15 C         142.3283  141.3645  169.7379 C.ar    1  UNL1        0.0576
     16 CL        142.0160  141.8185  171.1330 Cl      1  UNL1       -0.0823
     17 C         142.3498  139.9004  169.4128 C.ar    1  UNL1        0.0145
     18 C         142.6622  139.4463  168.0177 C.ar    1  UNL1        0.0374
     19 C         142.9531  140.4565  166.9477 C.ar    1  UNL1        0.1343
     20 O         143.2910  140.3094  165.4937 O.3     1  UNL1       -0.4825
     21 O         141.3978  141.4943  159.4103 O.3     1  UNL1       -0.4725
     22 C         140.1221  139.9890  161.1005 C.ar    1  UNL1        0.0877
     23 C         140.0461  138.7398  161.9274 C.ar    1  UNL1        0.0107
     24 C         141.1698  137.7468  161.8911 C.ar    1  UNL1        0.0370
     25 C         142.3694  138.0030  161.0279 C.ar    1  UNL1        0.1367
     26 O         143.4931  137.0100  160.9915 O.3     1  UNL1       -0.5054
     27 C         142.4455  139.2522  160.2009 C.ar    1  UNL1        0.0736
     28 C         141.3218  140.2452  160.2372 C.ar    1  UNL1        0.1460
     29 H         143.4457  136.2297  161.5081 H       1  UNL1        0.2922
     30 O         137.9043  140.9143  160.1128 O.2     1  UNL1       -0.2698
     31 C         138.9984  140.9819  161.1368 C.2     1  UNL1        0.2520
     32 N         138.9688  142.0426  162.1970 N.am    1  UNL1       -0.2758
     33 C         137.8451  143.0356  162.2334 C.3     1  UNL1        0.0962
     34 C         137.8154  144.0962  163.2936 C.3     1  UNL1        0.0508
     35 C         138.9095  144.1638  164.3176 C.3     1  UNL1        0.1139
     36 O         138.8798  145.2244  165.3779 O.3     1  UNL1       -0.3843
     37 C         140.0332  143.1708  164.2813 C.3     1  UNL1        0.0508
     38 C         140.0628  142.1102  163.2210 C.3     1  UNL1        0.0962
     39 H         138.0928  145.7788  165.2587 H       1  UNL1        0.2103
@<TRIPOS>BOND
     1    30    31    2
     2    31    22    1
     3    22    23   ar
     4    23    24   ar
     5    24    25   ar
     6    25    26    1
     7    25    27   ar
     8    27    28   ar
     9    28    21    1
    10    21     1    1
    11     1     2    1
    12     2     3    1
    13     2     5    1
    14     5     6    1
    15     6     7    1
    16     7     8    1
    17     8     9    1
    18     9    10    1
    19    10    11    1
    20     9    12    1
    21    12    13    1
    22    13    14   ar
    23    14    15   ar
    24    15    16    1
    25    15    17   ar
    26    17    18   ar
    27    18    19   ar
    28    19    20    1
    29    31    32   am
    30    32    33    1
    31    33    34    1
    32    34    35    1
    33    35    36    1
    34    35    37    1
    35    37    38    1
    36    28    22   ar
    37    11     6    1
    38    19    13   ar
    39    38    32    1
    40    20     9    1
    41    26    29    1
    42     3     4    1
    43    36    39    1
@<TRIPOS>MOLECULE
*****
 39 43 0 0 0
SMALL
GASTEIGER

@<TRIPOS>ATOM
      1 C         142.8408  140.2334  160.2920 C.3     1  UNL1        0.2358
      2 C         143.1680  138.7729  160.1921 C.3     1  UNL1        0.1700
      3 O         143.1077  138.0800  158.8631 O.3     1  UNL1       -0.3793
      4 H         142.8431  138.7149  158.1792 H       1  UNL1        0.2106
      5 C         143.5556  138.0054  161.4212 C.3     1  UNL1        0.1056
      6 N         143.0033  138.4020  162.7583 N.3     1  UNL1       -0.2703
      7 C         141.5229  138.3704  162.9976 C.3     1  UNL1        0.0758
      8 C         140.9707  138.7669  164.3347 C.3     1  UNL1        0.0577
      9 C         141.8989  139.1951  165.4325 C.3     1  UNL1        0.1399
     10 C         143.3793  139.2266  165.1932 C.3     1  UNL1        0.0577
     11 C         143.9315  138.8301  163.8561 C.3     1  UNL1        0.0758
     12 C         142.6994  139.6429  166.6194 C.3     1  UNL1        0.0695
     13 C         141.7444  139.9380  167.7379 C.ar    1  UNL1        0.0161
     14 C         141.9615  140.4142  169.1437 C.ar    1  UNL1        0.0102
     15 C         140.7879  140.6249  170.0538 C.ar    1  UNL1        0.0576
     16 CL        141.0050  141.1010  171.4595 Cl      1  UNL1       -0.0823
     17 C         139.3973  140.3595  169.5582 C.ar    1  UNL1        0.0145
     18 C         139.1802  139.8833  168.1524 C.ar    1  UNL1        0.0374
     19 C         140.3537  139.6726  167.2423 C.ar    1  UNL1        0.1343
     20 O         140.4492  139.2135  165.8175 O.3     1  UNL1       -0.4825
     21 O         141.5657  140.7584  159.7017 O.3     1  UNL1       -0.4725
     22 C         140.0529  142.0807  161.3488 C.ar    1  UNL1        0.0877
     23 C         138.8156  142.1667  162.1924 C.ar    1  UNL1        0.0107
     24 C         137.8537  141.0165  162.2323 C.ar    1  UNL1        0.0370
     25 C         138.1291  139.7802  161.4287 C.ar    1  UNL1        0.1367
     26 O         137.1671  138.6300  161.4687 O.3     1  UNL1       -0.5054
     27 C         139.3665  139.6942  160.5851 C.ar    1  UNL1        0.0736
     28 C         140.3284  140.8444  160.5452 C.ar    1  UNL1        0.1460
     29 H         136.3942  138.6837  161.9956 H       1  UNL1        0.2922
     30 O         141.0199  144.1641  160.1344 O.2     1  UNL1       -0.2698
     31 C         141.0149  143.2310  161.3089 C.2     1  UNL1        0.2520
     32 N         141.9718  143.4482  162.4434 N.am    1  UNL1       -0.2758
     33 C         142.9337  144.5984  162.4035 C.3     1  UNL1        0.0962
     34 C         143.8906  144.8156  163.5379 C.3     1  UNL1        0.0508
     35 C         143.8857  143.8825  164.7124 C.3     1  UNL1        0.1139
     36 O         144.8426  144.0997  165.8469 O.3     1  UNL1       -0.3843
     37 C         142.9237  142.7322  164.7524 C.3     1  UNL1        0.0508
     38 C         141.9668  142.5151  163.6178 C.3     1  UNL1        0.0962
     39 H         145.3892  144.8798  165.6640 H       1  UNL1        0.2103
@<TRIPOS>BOND
     1    30    31    2
     2    31    22    1
     3    22    23   ar
     4    23    24   ar
     5    24    25   ar
     6    25    26    1
     7    25    27   ar
     8    27    28   ar
     9    28    21    1
    10    21     1    1
    11     1     2    1
    12     2     3    1
    13     2     5    1
    14     5     6    1
    15     6     7    1
    16     7     8    1
    17     8     9    1
    18     9    10    1
    19    10    11    1
    20     9    12    1
    21    12    13    1
    22    13    14   ar
    23    14    15   ar
    24    15    16    1
    25    15    17   ar
    26    17    18   ar
    27    18    19   ar
    28    19    20    1
    29    31    32   am
    30    32    33    1
    31    33    34    1
    32    34    35    1
    33    35    36    1
    34    35    37    1
    35    37    38    1
    36    28    22   ar
    37    11     6    1
    38    19    13   ar
    39    38    32    1
    40    20     9    1
    41    26    29    1
    42     3     4    1
    43    36    39    1
@<TRIPOS>MOLECULE
*****
 39 43 0 0 0
SMALL
GASTEIGER

@<TRIPOS>ATOM
      1 C         138.3616  139.4211  166.8198 C.3     1  UNL1        0.2358
      2 C         137.8690  138.0189  166.6163 C.3     1  UNL1        0.1700
      3 O         136.7063  137.5092  167.4152 O.3     1  UNL1       -0.3793
      4 H         136.3932  138.2069  168.0119 H       1  UNL1        0.2106
      5 C         138.5390  137.1266  165.6139 C.3     1  UNL1        0.1056
      6 N         139.2732  137.7242  164.4503 N.3     1  UNL1       -0.2703
      7 C         140.6969  137.3354  164.1821 C.3     1  UNL1        0.0758
      8 C         141.4311  137.9330  163.0186 C.3     1  UNL1        0.0577
      9 C         140.7416  138.9195  162.1234 C.3     1  UNL1        0.1399
     10 C         139.3180  139.3084  162.3916 C.3     1  UNL1        0.0577
     11 C         138.5838  138.7108  163.5551 C.3     1  UNL1        0.0758
     12 C         140.1862  139.9132  161.1466 C.3     1  UNL1        0.0695
     13 C         141.2615  140.2362  160.1518 C.ar    1  UNL1        0.0161
     14 C         141.2874  141.1508  158.9632 C.ar    1  UNL1        0.0102
     15 C         142.5333  141.2713  158.1366 C.ar    1  UNL1        0.0576
     16 CL        142.5592  142.1859  156.9480 Cl      1  UNL1       -0.0823
     17 C         143.7532  140.4772  158.4985 C.ar    1  UNL1        0.0145
     18 C         143.7274  139.5626  159.6872 C.ar    1  UNL1        0.0374
     19 C         142.4816  139.4421  160.5138 C.ar    1  UNL1        0.1343
     20 O         142.1603  138.6283  161.7323 O.3     1  UNL1       -0.4825
     21 O         139.8267  139.6812  167.0087 O.3     1  UNL1       -0.4725
     22 C         140.7896  141.9736  167.7623 C.ar    1  UNL1        0.0877
     23 C         141.2536  142.8922  168.8536 C.ar    1  UNL1        0.0107
     24 C         141.2187  142.4371  170.2824 C.ar    1  UNL1        0.0370
     25 C         140.7199  141.0634  170.6201 C.ar    1  UNL1        0.1367
     26 O         140.6850  140.6083  172.0489 O.3     1  UNL1       -0.5054
     27 C         140.2558  140.1447  169.5288 C.ar    1  UNL1        0.0736
     28 C         140.2907  140.5998  168.0999 C.ar    1  UNL1        0.1460
     29 H         140.9748  141.1822  172.7306 H       1  UNL1        0.2922
     30 O         139.7726  143.3662  165.8191 O.2     1  UNL1       -0.2698
     31 C         140.8245  142.4287  166.3335 C.2     1  UNL1        0.2520
     32 N         141.9112  141.9463  165.4190 N.am    1  UNL1       -0.2758
     33 C         141.9461  142.4014  163.9901 C.3     1  UNL1        0.0962
     34 C         143.0328  141.9190  163.0757 C.3     1  UNL1        0.0508
     35 C         144.0848  140.9814  163.5901 C.3     1  UNL1        0.1139
     36 O         145.1715  140.4990  162.6756 O.3     1  UNL1       -0.3843
     37 C         144.0499  140.5263  165.0190 C.3     1  UNL1        0.0508
     38 C         142.9631  141.0088  165.9334 C.3     1  UNL1        0.0962
     39 H         145.0477  140.8852  161.7945 H       1  UNL1        0.2103
@<TRIPOS>BOND
     1    30    31    2
     2    31    22    1
     3    22    23   ar
     4    23    24   ar
     5    24    25   ar
     6    25    26    1
     7    25    27   ar
     8    27    28   ar
     9    28    21    1
    10    21     1    1
    11     1     2    1
    12     2     3    1
    13     2     5    1
    14     5     6    1
    15     6     7    1
    16     7     8    1
    17     8     9    1
    18     9    10    1
    19    10    11    1
    20     9    12    1
    21    12    13    1
    22    13    14   ar
    23    14    15   ar
    24    15    16    1
    25    15    17   ar
    26    17    18   ar
    27    18    19   ar
    28    19    20    1
    29    31    32   am
    30    32    33    1
    31    33    34    1
    32    34    35    1
    33    35    36    1
    34    35    37    1
    35    37    38    1
    36    28    22   ar
    37    11     6    1
    38    19    13   ar
    39    38    32    1
    40    20     9    1
    41    26    29    1
    42     3     4    1
    43    36    39    1
@<TRIPOS>MOLECULE
*****
 39 43 0 0 0
SMALL
GASTEIGER

@<TRIPOS>ATOM
      1 C         142.1816  142.0850  159.6956 C.3     1  UNL1        0.2358
      2 C         143.4302  142.9140  159.6330 C.3     1  UNL1        0.1700
      3 O         143.6961  143.7803  158.4377 O.3     1  UNL1       -0.3793
      4 H         142.9680  143.6884  157.8033 H       1  UNL1        0.2106
      5 C         144.4128  142.8766  160.7656 C.3     1  UNL1        0.1056
      6 N         143.9582  142.4846  162.1403 N.3     1  UNL1       -0.2703
      7 C         144.3599  141.1579  162.7133 C.3     1  UNL1        0.0758
      8 C         143.9053  140.7660  164.0879 C.3     1  UNL1        0.0577
      9 C         143.0490  141.7009  164.8896 C.3     1  UNL1        0.1399
     10 C         142.6474  143.0277  164.3167 C.3     1  UNL1        0.0577
     11 C         143.1020  143.4195  162.9421 C.3     1  UNL1        0.0758
     12 C         142.1942  142.5269  165.8045 C.3     1  UNL1        0.0695
     13 C         141.9863  141.7507  167.0712 C.ar    1  UNL1        0.0161
     14 C         141.2295  142.0642  168.3277 C.ar    1  UNL1        0.0102
     15 C         141.1989  141.0719  169.4522 C.ar    1  UNL1        0.0576
     16 CL        140.4421  141.3853  170.7087 Cl      1  UNL1       -0.0823
     17 C         141.9251  139.7661  169.3201 C.ar    1  UNL1        0.0145
     18 C         142.6820  139.4525  168.0635 C.ar    1  UNL1        0.0374
     19 C         142.7126  140.4448  166.9391 C.ar    1  UNL1        0.1343
     20 O         143.3693  140.4141  165.5909 O.3     1  UNL1       -0.4825
     21 O         140.8470  142.7185  159.4357 O.3     1  UNL1       -0.4725
     22 C         139.0764  142.7373  161.3369 C.ar    1  UNL1        0.0877
     23 C         138.3621  143.4609  162.4397 C.ar    1  UNL1        0.0107
     24 C         138.7043  144.8893  162.7441 C.ar    1  UNL1        0.0370
     25 C         139.7606  145.5941  161.9458 C.ar    1  UNL1        0.1367
     26 O         140.1027  147.0224  162.2502 O.3     1  UNL1       -0.5054
     27 C         140.4749  144.8704  160.8429 C.ar    1  UNL1        0.0736
     28 C         140.1328  143.4421  160.5385 C.ar    1  UNL1        0.1460
     29 H         139.6565  147.4745  162.9391 H       1  UNL1        0.2922
     30 O         137.9620  140.9707  159.7917 O.2     1  UNL1       -0.2698
     31 C         138.7342  141.3089  161.0324 C.2     1  UNL1        0.2520
     32 N         139.1644  140.2188  161.9686 N.am    1  UNL1       -0.2758
     33 C         138.8222  138.7904  161.6642 C.3     1  UNL1        0.0962
     34 C         139.2524  137.7002  162.6003 C.3     1  UNL1        0.0508
     35 C         140.0246  138.0384  163.8411 C.3     1  UNL1        0.1139
     36 O         140.4547  136.9482  164.7772 O.3     1  UNL1       -0.3843
     37 C         140.3667  139.4668  164.1455 C.3     1  UNL1        0.0508
     38 C         139.9366  140.5570  163.2092 C.3     1  UNL1        0.0962
     39 H         140.1552  136.0914  164.4352 H       1  UNL1        0.2103
@<TRIPOS>BOND
     1    30    31    2
     2    31    22    1
     3    22    23   ar
     4    23    24   ar
     5    24    25   ar
     6    25    26    1
     7    25    27   ar
     8    27    28   ar
     9    28    21    1
    10    21     1    1
    11     1     2    1
    12     2     3    1
    13     2     5    1
    14     5     6    1
    15     6     7    1
    16     7     8    1
    17     8     9    1
    18     9    10    1
    19    10    11    1
    20     9    12    1
    21    12    13    1
    22    13    14   ar
    23    14    15   ar
    24    15    16    1
    25    15    17   ar
    26    17    18   ar
    27    18    19   ar
    28    19    20    1
    29    31    32   am
    30    32    33    1
    31    33    34    1
    32    34    35    1
    33    35    36    1
    34    35    37    1
    35    37    38    1
    36    28    22   ar
    37    11     6    1
    38    19    13   ar
    39    38    32    1
    40    20     9    1
    41    26    29    1
    42     3     4    1
    43    36    39    1
@<TRIPOS>MOLECULE
*****
 39 43 0 0 0
SMALL
GASTEIGER

@<TRIPOS>ATOM
      1 C         140.0015  144.6922  160.7151 C.3     1  UNL1        0.2358
      2 C         141.4104  144.7566  160.2042 C.3     1  UNL1        0.1700
      3 O         141.8431  145.9038  159.3401 O.3     1  UNL1       -0.3793
      4 H         141.0969  146.5096  159.2093 H       1  UNL1        0.2106
      5 C         142.3865  143.6738  160.5574 C.3     1  UNL1        0.1056
      6 N         142.4639  143.1641  161.9660 N.3     1  UNL1       -0.2703
      7 C         142.8807  144.0844  163.0747 C.3     1  UNL1        0.0758
      8 C         142.9581  143.5747  164.4833 C.3     1  UNL1        0.0577
      9 C         142.6188  142.1447  164.7832 C.3     1  UNL1        0.1399
     10 C         142.2021  141.2244  163.6745 C.3     1  UNL1        0.0577
     11 C         142.1246  141.7341  162.2659 C.3     1  UNL1        0.0758
     12 C         142.3112  140.7473  165.2334 C.3     1  UNL1        0.0695
     13 C         142.5198  140.6819  166.7174 C.ar    1  UNL1        0.0161
     14 C         142.3686  139.5620  167.7038 C.ar    1  UNL1        0.0102
     15 C         142.6540  139.7991  169.1572 C.ar    1  UNL1        0.0576
     16 CL        142.5028  138.6792  170.1436 Cl      1  UNL1       -0.0823
     17 C         143.0905  141.1560  169.6242 C.ar    1  UNL1        0.0145
     18 C         143.2416  142.2760  168.6378 C.ar    1  UNL1        0.0374
     19 C         142.9563  142.0389  167.1844 C.ar    1  UNL1        0.1343
     20 O         143.0175  142.9429  165.9891 O.3     1  UNL1       -0.4825
     21 O         139.4143  143.3765  161.1320 O.3     1  UNL1       -0.4725
     22 C         138.1918  141.1679  160.5171 C.ar    1  UNL1        0.0877
     23 C         137.6655  140.2196  159.4810 C.ar    1  UNL1        0.0107
     24 C         137.8352  140.5314  158.0237 C.ar    1  UNL1        0.0370
     25 C         138.5313  141.7915  157.6024 C.ar    1  UNL1        0.1367
     26 O         138.7010  142.1033  156.1450 O.3     1  UNL1       -0.5054
     27 C         139.0577  142.7399  158.6385 C.ar    1  UNL1        0.0736
     28 C         138.8879  142.4281  160.0959 C.ar    1  UNL1        0.1460
     29 H         138.3722  141.5109  155.4978 H       1  UNL1        0.2922
     30 O         137.0365  141.6316  162.7976 O.2     1  UNL1       -0.2698
     31 C         138.0221  140.8561  161.9745 C.2     1  UNL1        0.2520
     32 N         138.8379  139.7689  162.6089 N.am    1  UNL1       -0.2758
     33 C         138.6681  139.4571  164.0663 C.3     1  UNL1        0.0962
     34 C         139.4839  138.3699  164.7006 C.3     1  UNL1        0.0508
     35 C         140.4695  137.5944  163.8775 C.3     1  UNL1        0.1139
     36 O         141.2852  136.5072  164.5119 O.3     1  UNL1       -0.3843
     37 C         140.6392  137.9062  162.4201 C.3     1  UNL1        0.0508
     38 C         139.8234  138.9935  161.7858 C.3     1  UNL1        0.0962
     39 H         141.0544  136.4360  165.4513 H       1  UNL1        0.2103
@<TRIPOS>BOND
     1    30    31    2
     2    31    22    1
     3    22    23   ar
     4    23    24   ar
     5    24    25   ar
     6    25    26    1
     7    25    27   ar
     8    27    28   ar
     9    28    21    1
    10    21     1    1
    11     1     2    1
    12     2     3    1
    13     2     5    1
    14     5     6    1
    15     6     7    1
    16     7     8    1
    17     8     9    1
    18     9    10    1
    19    10    11    1
    20     9    12    1
    21    12    13    1
    22    13    14   ar
    23    14    15   ar
    24    15    16    1
    25    15    17   ar
    26    17    18   ar
    27    18    19   ar
    28    19    20    1
    29    31    32   am
    30    32    33    1
    31    33    34    1
    32    34    35    1
    33    35    36    1
    34    35    37    1
    35    37    38    1
    36    28    22   ar
    37    11     6    1
    38    19    13   ar
    39    38    32    1
    40    20     9    1
    41    26    29    1
    42     3     4    1
    43    36    39    1
