@<TRIPOS>MOLECULE
*****
 26 29 0 0 0
SMALL
GASTEIGER

@<TRIPOS>ATOM
      1 O         142.3956  139.5469  166.8015 O.3     1  UNL1       -0.3768
      2 C         141.7014  140.0873  165.5866 C.3     1  UNL1        0.1456
      3 H         142.0150  138.6859  167.0352 H       1  UNL1        0.2112
      4 C         140.3949  139.5553  166.0967 C.ar    1  UNL1        0.0264
      5 C         139.6283  138.5496  165.2899 C.ar    1  UNL1        0.0015
      6 C         138.3219  138.0177  165.8000 C.ar    1  UNL1        0.0204
      7 C         137.7819  138.4916  167.1168 C.ar    1  UNL1        0.0989
      8 N         138.5485  139.4973  167.9235 N.ar    1  UNL1       -0.2426
      9 C         139.8549  140.0292  167.4135 C.ar    1  UNL1        0.0972
     10 C         143.0079  140.6192  165.0767 C.ar    1  UNL1        0.0264
     11 C         143.2731  142.0955  165.0899 C.ar    1  UNL1        0.0015
     12 C         144.5796  142.6274  164.5799 C.ar    1  UNL1        0.0204
     13 C         145.6209  141.6831  164.0567 C.ar    1  UNL1        0.0989
     14 N         145.3558  140.2068  164.0434 N.ar    1  UNL1       -0.2426
     15 C         144.0492  139.6748  164.5534 C.ar    1  UNL1        0.0972
     16 C         141.0072  140.6276  164.3717 C.3     1  UNL1        0.1130
     17 C         140.0045  141.7346  164.5110 C.ar    1  UNL1       -0.0049
     18 C         138.6983  141.6600  163.7773 C.ar    1  UNL1       -0.0029
     19 C         137.6957  142.7669  163.9166 C.ar    1  UNL1       -0.0003
     20 C         137.9992  143.9485  164.7894 C.ar    1  UNL1       -0.0000
     21 C         139.3054  144.0231  165.5231 C.ar    1  UNL1       -0.0003
     22 C         140.3081  142.9161  165.3838 C.ar    1  UNL1       -0.0029
     23 N         141.3156  140.0610  163.0175 N.3     1  UNL1       -0.2678
     24 C         141.2987  138.6883  162.4132 C.3     1  UNL1        0.0739
     25 C         141.7517  139.2598  161.1024 C.3     1  UNL1        0.0347
     26 C         141.7686  140.6326  161.7068 C.3     1  UNL1        0.0739
@<TRIPOS>BOND
     1     1     2    1
     2     2     4    1
     3     4     5   ar
     4     5     6   ar
     5     6     7   ar
     6     7     8   ar
     7     8     9   ar
     8     2    10    1
     9    10    11   ar
    10    11    12   ar
    11    12    13   ar
    12    13    14   ar
    13    14    15   ar
    14     2    16    1
    15    16    17    1
    16    17    18   ar
    17    18    19   ar
    18    19    20   ar
    19    20    21   ar
    20    21    22   ar
    21    16    23    1
    22    23    24    1
    23    24    25    1
    24    25    26    1
    25     9     4   ar
    26    15    10   ar
    27    22    17   ar
    28    26    23    1
    29     1     3    1
@<TRIPOS>MOLECULE
*****
 26 29 0 0 0
SMALL
GASTEIGER

@<TRIPOS>ATOM
      1 O         142.4243  139.5888  166.7737 O.3     1  UNL1       -0.3768
      2 C         141.7224  140.1288  165.5631 C.3     1  UNL1        0.1456
      3 H         143.1005  140.2207  167.0642 H       1  UNL1        0.2112
      4 C         143.0235  140.6722  165.0512 C.ar    1  UNL1        0.0264
      5 C         143.2865  142.1484  165.0890 C.ar    1  UNL1        0.0015
      6 C         144.5876  142.6918  164.5771 C.ar    1  UNL1        0.0204
      7 C         145.6256  141.7588  164.0275 C.ar    1  UNL1        0.0989
      8 N         145.3626  140.2826  163.9897 N.ar    1  UNL1       -0.2426
      9 C         144.0616  139.7393  164.5016 C.ar    1  UNL1        0.0972
     10 C         140.4214  139.5854  166.0750 C.ar    1  UNL1        0.0264
     11 C         139.6570  138.5812  165.2641 C.ar    1  UNL1        0.0015
     12 C         138.3560  138.0379  165.7760 C.ar    1  UNL1        0.0204
     13 C         137.8193  138.4986  167.0987 C.ar    1  UNL1        0.0989
     14 N         138.5836  139.5028  167.9096 N.ar    1  UNL1       -0.2426
     15 C         139.8847  140.0462  167.3977 C.ar    1  UNL1        0.0972
     16 C         141.0205  140.6689  164.3525 C.3     1  UNL1        0.1130
     17 C         140.0041  141.7622  164.5002 C.ar    1  UNL1       -0.0049
     18 C         140.3189  142.9718  165.3295 C.ar    1  UNL1       -0.0029
     19 C         139.3026  144.0650  165.4772 C.ar    1  UNL1       -0.0003
     20 C         137.9714  143.9487  164.7956 C.ar    1  UNL1       -0.0000
     21 C         137.6567  142.7391  163.9662 C.ar    1  UNL1       -0.0003
     22 C         138.6731  141.6458  163.8185 C.ar    1  UNL1       -0.0029
     23 N         141.3350  140.1157  162.9941 N.3     1  UNL1       -0.2678
     24 C         141.3231  138.7488  162.3768 C.3     1  UNL1        0.0739
     25 C         141.7797  139.3334  161.0731 C.3     1  UNL1        0.0347
     26 C         141.7916  140.7005  161.6905 C.3     1  UNL1        0.0739
@<TRIPOS>BOND
     1     1     2    1
     2     2     4    1
     3     4     5   ar
     4     5     6   ar
     5     6     7   ar
     6     7     8   ar
     7     8     9   ar
     8     2    10    1
     9    10    11   ar
    10    11    12   ar
    11    12    13   ar
    12    13    14   ar
    13    14    15   ar
    14     2    16    1
    15    16    17    1
    16    17    18   ar
    17    18    19   ar
    18    19    20   ar
    19    20    21   ar
    20    21    22   ar
    21    16    23    1
    22    23    24    1
    23    24    25    1
    24    25    26    1
    25     9     4   ar
    26    15    10   ar
    27    22    17   ar
    28    26    23    1
    29     1     3    1
@<TRIPOS>MOLECULE
*****
 26 29 0 0 0
SMALL
GASTEIGER

@<TRIPOS>ATOM
      1 O         143.6121  142.5704  166.8827 O.3     1  UNL1       -0.3768
      2 C         142.4309  142.0799  166.0989 C.3     1  UNL1        0.1456
      3 H         143.8644  143.4529  166.5689 H       1  UNL1        0.2112
      4 C         143.0029  142.6914  164.8543 C.ar    1  UNL1        0.0264
      5 C         142.9811  144.1800  164.6718 C.ar    1  UNL1        0.0015
      6 C         143.5531  144.7914  163.4272 C.ar    1  UNL1        0.0204
      7 C         144.1468  143.9142  162.3652 C.ar    1  UNL1        0.0989
      8 N         144.1685  142.4255  162.5477 N.ar    1  UNL1       -0.2426
      9 C         143.5966  141.8141  163.7923 C.ar    1  UNL1        0.0972
     10 C         141.8590  141.4684  167.3435 C.ar    1  UNL1        0.0264
     11 C         140.6551  142.0814  167.9954 C.ar    1  UNL1        0.0015
     12 C         140.0832  141.4700  169.2400 C.ar    1  UNL1        0.0204
     13 C         140.7152  140.2455  169.8328 C.ar    1  UNL1        0.0989
     14 N         141.9190  139.6325  169.1810 N.ar    1  UNL1       -0.2426
     15 C         142.4910  140.2440  167.9363 C.ar    1  UNL1        0.0972
     16 C         141.2498  141.5894  165.3152 C.3     1  UNL1        0.1130
     17 C         140.2997  142.5717  164.6967 C.ar    1  UNL1       -0.0049
     18 C         139.9710  142.4793  163.2361 C.ar    1  UNL1       -0.0029
     19 C         139.0210  143.4616  162.6176 C.ar    1  UNL1       -0.0003
     20 C         138.3997  144.5363  163.4597 C.ar    1  UNL1       -0.0000
     21 C         138.7285  144.6287  164.9203 C.ar    1  UNL1       -0.0003
     22 C         139.6785  143.6464  165.5388 C.ar    1  UNL1       -0.0029
     23 N         141.0186  140.1165  165.1500 N.3     1  UNL1       -0.2678
     24 C         139.8979  139.1754  165.4786 C.3     1  UNL1        0.0739
     25 C         140.6917  138.0336  164.9163 C.3     1  UNL1        0.0347
     26 C         141.8125  138.9748  164.5876 C.3     1  UNL1        0.0739
@<TRIPOS>BOND
     1     1     2    1
     2     2     4    1
     3     4     5   ar
     4     5     6   ar
     5     6     7   ar
     6     7     8   ar
     7     8     9   ar
     8     2    10    1
     9    10    11   ar
    10    11    12   ar
    11    12    13   ar
    12    13    14   ar
    13    14    15   ar
    14     2    16    1
    15    16    17    1
    16    17    18   ar
    17    18    19   ar
    18    19    20   ar
    19    20    21   ar
    20    21    22   ar
    21    16    23    1
    22    23    24    1
    23    24    25    1
    24    25    26    1
    25     9     4   ar
    26    15    10   ar
    27    22    17   ar
    28    26    23    1
    29     1     3    1
@<TRIPOS>MOLECULE
*****
 26 29 0 0 0
SMALL
GASTEIGER

@<TRIPOS>ATOM
      1 O         143.6349  142.5919  166.9055 O.3     1  UNL1       -0.3768
      2 C         142.4600  142.1002  166.1132 C.3     1  UNL1        0.1456
      3 H         143.8858  141.9225  167.5611 H       1  UNL1        0.2112
      4 C         141.8772  141.4926  167.3547 C.ar    1  UNL1        0.0264
      5 C         140.6799  142.1193  168.0056 C.ar    1  UNL1        0.0015
      6 C         140.0972  141.5116  169.2470 C.ar    1  UNL1        0.0204
      7 C         140.7117  140.2773  169.8376 C.ar    1  UNL1        0.0989
      8 N         141.9090  139.6506  169.1867 N.ar    1  UNL1       -0.2426
      9 C         142.4917  140.2582  167.9453 C.ar    1  UNL1        0.0972
     10 C         143.0428  142.7078  164.8719 C.ar    1  UNL1        0.0264
     11 C         143.0094  144.1949  164.6778 C.ar    1  UNL1        0.0015
     12 C         143.5922  144.8025  163.4364 C.ar    1  UNL1        0.0204
     13 C         144.2084  143.9231  162.3890 C.ar    1  UNL1        0.0989
     14 N         144.2419  142.4361  162.5831 N.ar    1  UNL1       -0.2426
     15 C         143.6590  141.8284  163.8245 C.ar    1  UNL1        0.0972
     16 C         141.2851  141.6084  165.3210 C.3     1  UNL1        0.1130
     17 C         140.3384  142.5898  164.6958 C.ar    1  UNL1       -0.0049
     18 C         139.6984  143.6544  165.5366 C.ar    1  UNL1       -0.0029
     19 C         138.7517  144.6357  164.9114 C.ar    1  UNL1       -0.0003
     20 C         138.4450  144.5524  163.4454 C.ar    1  UNL1       -0.0000
     21 C         139.0851  143.4878  162.6046 C.ar    1  UNL1       -0.0003
     22 C         140.0318  142.5065  163.2298 C.ar    1  UNL1       -0.0029
     23 N         141.0568  140.1354  165.1538 N.3     1  UNL1       -0.2678
     24 C         139.9332  139.1936  165.4704 C.3     1  UNL1        0.0739
     25 C         140.7340  138.0521  164.9175 C.3     1  UNL1        0.0347
     26 C         141.8577  138.9940  164.6008 C.3     1  UNL1        0.0739
@<TRIPOS>BOND
     1     1     2    1
     2     2     4    1
     3     4     5   ar
     4     5     6   ar
     5     6     7   ar
     6     7     8   ar
     7     8     9   ar
     8     2    10    1
     9    10    11   ar
    10    11    12   ar
    11    12    13   ar
    12    13    14   ar
    13    14    15   ar
    14     2    16    1
    15    16    17    1
    16    17    18   ar
    17    18    19   ar
    18    19    20   ar
    19    20    21   ar
    20    21    22   ar
    21    16    23    1
    22    23    24    1
    23    24    25    1
    24    25    26    1
    25     9     4   ar
    26    15    10   ar
    27    22    17   ar
    28    26    23    1
    29     1     3    1
@<TRIPOS>MOLECULE
*****
 26 29 0 0 0
SMALL
GASTEIGER

@<TRIPOS>ATOM
      1 O         140.3178  143.3376  165.9806 O.3     1  UNL1       -0.3768
      2 C         140.6133  141.8701  165.8850 C.3     1  UNL1        0.1456
      3 H         139.3962  143.4992  165.7247 H       1  UNL1        0.2112
      4 C         139.7769  141.7827  164.6428 C.ar    1  UNL1        0.0264
      5 C         138.2878  141.9405  164.7286 C.ar    1  UNL1        0.0015
      6 C         137.4515  141.8531  163.4865 C.ar    1  UNL1        0.0204
      7 C         138.1044  141.6079  162.1585 C.ar    1  UNL1        0.0989
      8 N         139.5936  141.4501  162.0727 N.ar    1  UNL1       -0.2426
      9 C         140.4298  141.5375  163.3148 C.ar    1  UNL1        0.0972
     10 C         141.4496  141.9576  167.1271 C.ar    1  UNL1        0.0264
     11 C         140.8871  141.5082  168.4431 C.ar    1  UNL1        0.0015
     12 C         141.7234  141.5957  169.6853 C.ar    1  UNL1        0.0204
     13 C         143.1221  142.1325  169.6115 C.ar    1  UNL1        0.0989
     14 N         143.6846  142.5819  168.2955 N.ar    1  UNL1       -0.2426
     15 C         142.8483  142.4944  167.0533 C.ar    1  UNL1        0.0972
     16 C         140.9087  140.4027  165.7894 C.3     1  UNL1        0.1130
     17 C         139.8162  139.4010  166.0201 C.ar    1  UNL1       -0.0049
     18 C         138.8554  139.5876  167.1568 C.ar    1  UNL1       -0.0029
     19 C         137.7629  138.5861  167.3874 C.ar    1  UNL1       -0.0003
     20 C         137.6311  137.3978  166.4814 C.ar    1  UNL1       -0.0000
     21 C         138.5919  137.2112  165.3447 C.ar    1  UNL1       -0.0003
     22 C         139.6844  138.2129  165.1140 C.ar    1  UNL1       -0.0029
     23 N         142.2967  139.9367  165.4631 N.3     1  UNL1       -0.2678
     24 C         143.2653  138.9737  166.0829 C.3     1  UNL1        0.0739
     25 C         144.2596  139.2778  165.0018 C.3     1  UNL1        0.0347
     26 C         143.2909  140.2409  164.3819 C.3     1  UNL1        0.0739
@<TRIPOS>BOND
     1     1     2    1
     2     2     4    1
     3     4     5   ar
     4     5     6   ar
     5     6     7   ar
     6     7     8   ar
     7     8     9   ar
     8     2    10    1
     9    10    11   ar
    10    11    12   ar
    11    12    13   ar
    12    13    14   ar
    13    14    15   ar
    14     2    16    1
    15    16    17    1
    16    17    18   ar
    17    18    19   ar
    18    19    20   ar
    19    20    21   ar
    20    21    22   ar
    21    16    23    1
    22    23    24    1
    23    24    25    1
    24    25    26    1
    25     9     4   ar
    26    15    10   ar
    27    22    17   ar
    28    26    23    1
    29     1     3    1
@<TRIPOS>MOLECULE
*****
 26 29 0 0 0
SMALL
GASTEIGER

@<TRIPOS>ATOM
      1 O         143.4459  142.3658  166.6142 O.3     1  UNL1       -0.3768
      2 C         142.1024  142.1161  165.9957 C.3     1  UNL1        0.1456
      3 H         143.8226  143.1823  166.2505 H       1  UNL1        0.2112
      4 C         142.6195  142.6053  164.6753 C.ar    1  UNL1        0.0264
      5 C         142.9130  144.0631  164.4783 C.ar    1  UNL1        0.0015
      6 C         143.4300  144.5522  163.1579 C.ar    1  UNL1        0.0204
      7 C         143.6536  143.5836  162.0346 C.ar    1  UNL1        0.0989
      8 N         143.3601  142.1259  162.2316 N.ar    1  UNL1       -0.2426
      9 C         142.8431  141.6368  163.5520 C.ar    1  UNL1        0.0972
     10 C         141.5854  141.6269  167.3160 C.ar    1  UNL1        0.0264
     11 C         142.0168  140.2898  167.8416 C.ar    1  UNL1        0.0015
     12 C         141.4998  139.8007  169.1620 C.ar    1  UNL1        0.0204
     13 C         140.5514  140.6485  169.9568 C.ar    1  UNL1        0.0989
     14 N         140.1201  141.9855  169.4313 N.ar    1  UNL1       -0.2426
     15 C         140.6371  142.4748  168.1109 C.ar    1  UNL1        0.0972
     16 C         140.7590  141.8664  165.3771 C.3     1  UNL1        0.1130
     17 C         140.2029  140.4741  165.3280 C.ar    1  UNL1       -0.0049
     18 C         138.8454  140.1881  165.8984 C.ar    1  UNL1       -0.0029
     19 C         138.2894  138.7959  165.8493 C.ar    1  UNL1       -0.0003
     20 C         139.0909  137.6895  165.2298 C.ar    1  UNL1       -0.0000
     21 C         140.4484  137.9755  164.6594 C.ar    1  UNL1       -0.0003
     22 C         141.0044  139.3679  164.7085 C.ar    1  UNL1       -0.0029
     23 N         139.9714  143.0090  164.8077 N.3     1  UNL1       -0.2678
     24 C         139.3753  144.2679  165.3642 C.3     1  UNL1        0.0739
     25 C         138.8577  144.6249  164.0023 C.3     1  UNL1        0.0347
     26 C         139.4539  143.3659  163.4458 C.3     1  UNL1        0.0739
@<TRIPOS>BOND
     1     1     2    1
     2     2     4    1
     3     4     5   ar
     4     5     6   ar
     5     6     7   ar
     6     7     8   ar
     7     8     9   ar
     8     2    10    1
     9    10    11   ar
    10    11    12   ar
    11    12    13   ar
    12    13    14   ar
    13    14    15   ar
    14     2    16    1
    15    16    17    1
    16    17    18   ar
    17    18    19   ar
    18    19    20   ar
    19    20    21   ar
    20    21    22   ar
    21    16    23    1
    22    23    24    1
    23    24    25    1
    24    25    26    1
    25     9     4   ar
    26    15    10   ar
    27    22    17   ar
    28    26    23    1
    29     1     3    1
@<TRIPOS>MOLECULE
*****
 26 29 0 0 0
SMALL
GASTEIGER

@<TRIPOS>ATOM
      1 O         143.4159  142.3222  166.6445 O.3     1  UNL1       -0.3768
      2 C         142.0686  142.0833  166.0300 C.3     1  UNL1        0.1456
      3 H         143.6112  141.6159  167.2801 H       1  UNL1        0.2112
      4 C         141.5482  141.6105  167.3551 C.ar    1  UNL1        0.0264
      5 C         140.6019  142.4704  168.1393 C.ar    1  UNL1        0.0015
      6 C         140.0815  141.9976  169.4643 C.ar    1  UNL1        0.0204
      7 C         140.5074  140.6648  170.0050 C.ar    1  UNL1        0.0989
      8 N         141.4537  139.8049  169.2207 N.ar    1  UNL1       -0.2426
      9 C         141.9740  140.2777  167.8958 C.ar    1  UNL1        0.0972
     10 C         142.5890  142.5562  164.7051 C.ar    1  UNL1        0.0264
     11 C         142.8850  144.0111  164.4914 C.ar    1  UNL1        0.0015
     12 C         143.4054  144.4840  163.1665 C.ar    1  UNL1        0.0204
     13 C         143.6300  143.5019  162.0551 C.ar    1  UNL1        0.0989
     14 N         143.3340  142.0470  162.2687 N.ar    1  UNL1       -0.2426
     15 C         142.8136  141.5741  163.5937 C.ar    1  UNL1        0.0972
     16 C         140.7213  141.8445  165.4156 C.3     1  UNL1        0.1130
     17 C         140.1540  140.4567  165.3678 C.ar    1  UNL1       -0.0049
     18 C         140.9355  139.3488  164.7261 C.ar    1  UNL1       -0.0029
     19 C         140.3683  137.9610  164.6783 C.ar    1  UNL1       -0.0003
     20 C         139.0196  137.6810  165.2723 C.ar    1  UNL1       -0.0000
     21 C         138.2382  138.7890  165.9141 C.ar    1  UNL1       -0.0003
     22 C         138.8054  140.1768  165.9618 C.ar    1  UNL1       -0.0029
     23 N         139.9411  142.9935  164.8488 N.3     1  UNL1       -0.2678
     24 C         139.4135  143.3500  163.4907 C.3     1  UNL1        0.0739
     25 C         138.8378  144.6184  164.0473 C.3     1  UNL1        0.0347
     26 C         139.3654  144.2618  165.4055 C.3     1  UNL1        0.0739
@<TRIPOS>BOND
     1     1     2    1
     2     2     4    1
     3     4     5   ar
     4     5     6   ar
     5     6     7   ar
     6     7     8   ar
     7     8     9   ar
     8     2    10    1
     9    10    11   ar
    10    11    12   ar
    11    12    13   ar
    12    13    14   ar
    13    14    15   ar
    14     2    16    1
    15    16    17    1
    16    17    18   ar
    17    18    19   ar
    18    19    20   ar
    19    20    21   ar
    20    21    22   ar
    21    16    23    1
    22    23    24    1
    23    24    25    1
    24    25    26    1
    25     9     4   ar
    26    15    10   ar
    27    22    17   ar
    28    26    23    1
    29     1     3    1
@<TRIPOS>MOLECULE
*****
 26 29 0 0 0
SMALL
GASTEIGER

@<TRIPOS>ATOM
      1 O         137.2352  141.3522  164.0840 O.3     1  UNL1       -0.3768
      2 C         138.7232  141.2331  164.2314 C.3     1  UNL1        0.1456
      3 H         137.0277  141.7981  163.2480 H       1  UNL1        0.2112
      4 C         138.8917  142.5980  163.6324 C.ar    1  UNL1        0.0264
      5 C         139.3749  143.7356  164.4824 C.ar    1  UNL1        0.0015
      6 C         139.5433  145.1004  163.8834 C.ar    1  UNL1        0.0204
      7 C         139.2286  145.3277  162.4346 C.ar    1  UNL1        0.0989
      8 N         138.7454  144.1902  161.5846 N.ar    1  UNL1       -0.2426
      9 C         138.5769  142.8253  162.1835 C.ar    1  UNL1        0.0972
     10 C         138.5546  139.8682  164.8303 C.ar    1  UNL1        0.0264
     11 C         137.9799  139.7194  166.2078 C.ar    1  UNL1        0.0015
     12 C         137.8114  138.3545  166.8067 C.ar    1  UNL1        0.0204
     13 C         138.2175  137.1385  166.0281 C.ar    1  UNL1        0.0989
     14 N         138.7922  137.2873  164.6506 N.ar    1  UNL1       -0.2426
     15 C         138.9607  138.6522  164.0516 C.ar    1  UNL1        0.0972
     16 C         140.2111  141.1140  164.3787 C.3     1  UNL1        0.1130
     17 C         140.8215  140.9803  165.7424 C.ar    1  UNL1       -0.0049
     18 C         141.7347  139.8296  166.0458 C.ar    1  UNL1       -0.0029
     19 C         142.3451  139.6958  167.4094 C.ar    1  UNL1       -0.0003
     20 C         142.0422  140.7127  168.4697 C.ar    1  UNL1       -0.0000
     21 C         141.1290  141.8634  168.1664 C.ar    1  UNL1       -0.0003
     22 C         140.5186  141.9971  166.8027 C.ar    1  UNL1       -0.0029
     23 N         141.0888  141.1286  163.1623 N.3     1  UNL1       -0.2678
     24 C         141.1955  140.2930  161.9214 C.3     1  UNL1        0.0739
     25 C         142.3300  141.1494  161.4422 C.3     1  UNL1        0.0347
     26 C         142.2232  141.9851  162.6833 C.3     1  UNL1        0.0739
@<TRIPOS>BOND
     1     1     2    1
     2     2     4    1
     3     4     5   ar
     4     5     6   ar
     5     6     7   ar
     6     7     8   ar
     7     8     9   ar
     8     2    10    1
     9    10    11   ar
    10    11    12   ar
    11    12    13   ar
    12    13    14   ar
    13    14    15   ar
    14     2    16    1
    15    16    17    1
    16    17    18   ar
    17    18    19   ar
    18    19    20   ar
    19    20    21   ar
    20    21    22   ar
    21    16    23    1
    22    23    24    1
    23    24    25    1
    24    25    26    1
    25     9     4   ar
    26    15    10   ar
    27    22    17   ar
    28    26    23    1
    29     1     3    1
@<TRIPOS>MOLECULE
*****
 26 29 0 0 0
SMALL
GASTEIGER

@<TRIPOS>ATOM
      1 O         139.9903  143.1189  166.7155 O.3     1  UNL1       -0.3768
      2 C         140.5442  141.9483  165.9585 C.3     1  UNL1        0.1456
      3 H         140.6882  143.5078  167.2655 H       1  UNL1        0.2112
      4 C         141.3565  141.5575  167.1575 C.ar    1  UNL1        0.0264
      5 C         142.4799  142.4366  167.6212 C.ar    1  UNL1        0.0015
      6 C         143.2922  142.0458  168.8201 C.ar    1  UNL1        0.0204
      7 C         142.9811  140.7758  169.5553 C.ar    1  UNL1        0.0989
      8 N         141.8577  139.8967  169.0915 N.ar    1  UNL1       -0.2426
      9 C         141.0454  140.2875  167.8926 C.ar    1  UNL1        0.0972
     10 C         139.7318  142.3392  164.7597 C.ar    1  UNL1        0.0264
     11 C         138.2605  142.0493  164.7237 C.ar    1  UNL1        0.0015
     12 C         137.4482  142.4401  163.5249 C.ar    1  UNL1        0.0204
     13 C         138.1071  143.1208  162.3619 C.ar    1  UNL1        0.0989
     14 N         139.5783  143.4107  162.3978 N.ar    1  UNL1       -0.2426
     15 C         140.3907  143.0199  163.5967 C.ar    1  UNL1        0.0972
     16 C         141.0980  140.7778  165.2016 C.3     1  UNL1        0.1130
     17 C         142.5518  140.7425  164.8336 C.ar    1  UNL1       -0.0049
     18 C         143.2347  141.9893  164.3548 C.ar    1  UNL1       -0.0029
     19 C         144.6884  141.9541  163.9868 C.ar    1  UNL1       -0.0003
     20 C         145.4593  140.6721  164.0976 C.ar    1  UNL1       -0.0000
     21 C         144.7765  139.4253  164.5765 C.ar    1  UNL1       -0.0003
     22 C         143.3227  139.4606  164.9445 C.ar    1  UNL1       -0.0029
     23 N         140.1982  139.6424  164.8127 N.3     1  UNL1       -0.2678
     24 C         139.8711  138.9405  163.5281 C.3     1  UNL1        0.0739
     25 C         138.9257  138.0368  164.2626 C.3     1  UNL1        0.0347
     26 C         139.2528  138.7388  165.5473 C.3     1  UNL1        0.0739
@<TRIPOS>BOND
     1     1     2    1
     2     2     4    1
     3     4     5   ar
     4     5     6   ar
     5     6     7   ar
     6     7     8   ar
     7     8     9   ar
     8     2    10    1
     9    10    11   ar
    10    11    12   ar
    11    12    13   ar
    12    13    14   ar
    13    14    15   ar
    14     2    16    1
    15    16    17    1
    16    17    18   ar
    17    18    19   ar
    18    19    20   ar
    19    20    21   ar
    20    21    22   ar
    21    16    23    1
    22    23    24    1
    23    24    25    1
    24    25    26    1
    25     9     4   ar
    26    15    10   ar
    27    22    17   ar
    28    26    23    1
    29     1     3    1
