@<TRIPOS>MOLECULE
*****
 30 32 0 0 0
SMALL
GASTEIGER

@<TRIPOS>ATOM
      1 N         138.7331  138.0595  164.1334 N.pl3   1  UNL1       -0.2820
      2 H         138.7017  137.0822  164.0184 H       1  UNL1        0.1551
      3 C         139.2042  139.8271  168.2449 C.ar    1  UNL1        0.1081
      4 C         137.9127  139.1722  167.8535 C.ar    1  UNL1        0.1080
      5 N         137.7557  138.5830  166.4830 N.ar    1  UNL1       -0.2287
      6 C         138.8901  138.6487  165.5039 C.ar    1  UNL1        0.1345
      7 C         140.1816  139.3036  165.8953 C.ar    1  UNL1        0.0492
      8 C         140.3386  139.8927  167.2657 C.ar    1  UNL1        0.0585
      9 N         141.6302  140.5476  167.6571 N.pl3   1  UNL1       -0.3038
     10 C         142.6229  139.8038  168.5004 C.3     1  UNL1        0.1122
     11 C         141.9289  141.9464  167.2051 C.3     1  UNL1        0.1122
     12 C         139.3612  140.4162  169.6153 C.2     1  UNL1        0.3441
     13 O         139.3028  139.5299  170.8240 O.2     1  UNL1       -0.2448
     14 C         140.6369  142.3971  170.7101 C.3     1  UNL1        0.2560
     15 O         139.5766  141.8918  169.7772 O.3     1  UNL1       -0.4413
     16 C         138.6238  138.9592  162.9383 C.ar    1  UNL1        0.1558
     17 C         139.0279  138.4587  161.5832 C.ar    1  UNL1        0.1342
     18 N         138.9187  139.3584  160.3880 N.ar    1  UNL1       -0.2263
     19 C         138.4053  140.7587  160.5478 C.ar    1  UNL1        0.2025
     20 C         138.0012  141.2593  161.9028 C.ar    1  UNL1        0.2543
     21 N         138.1104  140.3595  163.0981 N.ar    1  UNL1       -0.1931
     22 C         138.2960  141.6585  159.3525 C.1     1  UNL1        0.1246
     23 N         138.1867  142.5582  158.1574 N.1     1  UNL1       -0.1891
     24 O         137.4878  142.6596  162.0626 O.3     1  UNL1       -0.4610
     25 C         138.1581  143.5995  163.0205 C.3     1  UNL1        0.1846
     26 C         137.8468  143.7402  164.4810 C.3     1  UNL1        0.0621
     27 C         138.7537  144.7913  165.0491 C.3     1  UNL1        0.0724
     28 N         139.6257  145.3001  163.9396 N.3     1  UNL1       -0.2944
     29 C         139.2575  144.5635  162.6859 C.3     1  UNL1        0.1127
     30 H         140.6061  145.1316  164.1648 H       1  UNL1        0.1234
@<TRIPOS>BOND
     1    14    15    1
     2    15    12    1
     3    12    13    2
     4    12     3    1
     5     3     4   ar
     6     4     5   ar
     7     5     6   ar
     8     6     1    1
     9     1    16    1
    10    16    17   ar
    11    17    18   ar
    12    18    19   ar
    13    19    22    1
    14    22    23    3
    15    19    20   ar
    16    20    24    1
    17    25    24    1
    18    25    26    1
    19    26    27    1
    20    27    28    1
    21    28    29    1
    22    20    21   ar
    23     6     7   ar
    24     7     8   ar
    25     8     9    1
    26     9    10    1
    27     9    11    1
    28     8     3   ar
    29    21    16   ar
    30    29    25    1
    31     1     2    1
    32    28    30    1
@<TRIPOS>MOLECULE
*****
 30 32 0 0 0
SMALL
GASTEIGER

@<TRIPOS>ATOM
      1 N         144.2475  142.3160  164.4421 N.pl3   1  UNL1       -0.2820
      2 H         145.2260  142.3204  164.3336 H       1  UNL1        0.1551
      3 C         142.3871  140.2805  167.9981 C.ar    1  UNL1        0.1081
      4 C         142.7995  139.4735  166.8029 C.ar    1  UNL1        0.1080
      5 N         143.4196  140.1520  165.6175 N.ar    1  UNL1       -0.2287
      6 C         143.6274  141.6375  165.6274 C.ar    1  UNL1        0.1345
      7 C         143.2150  142.4445  166.8227 C.ar    1  UNL1        0.0492
      8 C         142.5949  141.7660  168.0081 C.ar    1  UNL1        0.0585
      9 N         142.1825  142.5730  169.2034 N.pl3   1  UNL1       -0.3038
     10 C         143.1452  142.7843  170.3341 C.3     1  UNL1        0.1122
     11 C         140.8074  143.1688  169.2679 C.3     1  UNL1        0.1122
     12 C         141.7670  139.6020  169.1835 C.2     1  UNL1        0.3441
     13 O         142.6255  138.8249  170.1369 O.2     1  UNL1       -0.2448
     14 C         139.3598  139.9125  168.2566 C.3     1  UNL1        0.2560
     15 O         140.2883  139.7006  169.4154 O.3     1  UNL1       -0.4413
     16 C         143.3768  142.9879  163.4221 C.ar    1  UNL1        0.1558
     17 C         143.9771  143.5090  162.1500 C.ar    1  UNL1        0.1342
     18 N         143.1064  144.1808  161.1299 N.ar    1  UNL1       -0.2263
     19 C         141.6355  144.3316  161.3819 C.ar    1  UNL1        0.2025
     20 C         141.0352  143.8106  162.6540 C.ar    1  UNL1        0.2543
     21 N         141.9059  143.1387  163.6741 N.ar    1  UNL1       -0.1931
     22 C         140.7648  145.0035  160.3618 C.1     1  UNL1        0.1246
     23 N         139.8942  145.6754  159.3418 N.1     1  UNL1       -0.1891
     24 O         139.5642  143.9614  162.9060 O.3     1  UNL1       -0.4610
     25 C         138.6483  142.7871  162.7264 C.3     1  UNL1        0.1846
     26 C         138.7935  141.7048  161.6981 C.3     1  UNL1        0.0621
     27 C         137.6613  140.7378  161.8798 C.3     1  UNL1        0.0724
     28 N         136.8162  141.2226  163.0204 N.3     1  UNL1       -0.2944
     29 C         137.4262  142.4891  163.5436 C.3     1  UNL1        0.1127
     30 H         136.7938  140.5186  163.7582 H       1  UNL1        0.1234
@<TRIPOS>BOND
     1    14    15    1
     2    15    12    1
     3    12    13    2
     4    12     3    1
     5     3     4   ar
     6     4     5   ar
     7     5     6   ar
     8     6     1    1
     9     1    16    1
    10    16    17   ar
    11    17    18   ar
    12    18    19   ar
    13    19    22    1
    14    22    23    3
    15    19    20   ar
    16    20    24    1
    17    25    24    1
    18    25    26    1
    19    26    27    1
    20    27    28    1
    21    28    29    1
    22    20    21   ar
    23     6     7   ar
    24     7     8   ar
    25     8     9    1
    26     9    10    1
    27     9    11    1
    28     8     3   ar
    29    21    16   ar
    30    29    25    1
    31     1     2    1
    32    28    30    1
@<TRIPOS>MOLECULE
*****
 30 32 0 0 0
SMALL
GASTEIGER

@<TRIPOS>ATOM
      1 N         139.6597  144.2424  164.6496 N.pl3   1  UNL1       -0.2820
      2 H         139.5435  144.9772  165.2945 H       1  UNL1        0.1551
      3 C         138.6936  140.0161  165.8560 C.ar    1  UNL1        0.1081
      4 C         137.9827  140.6458  164.6949 C.ar    1  UNL1        0.1080
      5 N         138.3048  142.0545  164.2928 N.ar    1  UNL1       -0.2287
      6 C         139.3376  142.8337  165.0517 C.ar    1  UNL1        0.1345
      7 C         140.0485  142.2040  166.2128 C.ar    1  UNL1        0.0492
      8 C         139.7265  140.7953  166.6149 C.ar    1  UNL1        0.0585
      9 N         140.4374  140.1656  167.7761 N.pl3   1  UNL1       -0.3038
     10 C         139.8272  140.2151  169.1454 C.3     1  UNL1        0.1122
     11 C         141.7586  139.4866  167.5678 C.3     1  UNL1        0.1122
     12 C         138.3716  138.6074  166.2581 C.2     1  UNL1        0.3441
     13 O         137.5125  138.3483  167.4600 O.2     1  UNL1       -0.2448
     14 C         140.1483  137.6331  164.6321 C.3     1  UNL1        0.2560
     15 O         138.9087  137.4577  165.4583 O.3     1  UNL1       -0.4413
     16 C         140.1587  144.5317  163.2650 C.ar    1  UNL1        0.1558
     17 C         139.2899  145.2762  162.2949 C.ar    1  UNL1        0.1342
     18 N         139.7890  145.5655  160.9103 N.ar    1  UNL1       -0.2263
     19 C         141.1567  145.1103  160.4956 C.ar    1  UNL1        0.2025
     20 C         142.0255  144.3658  161.4656 C.ar    1  UNL1        0.2543
     21 N         141.5265  144.0765  162.8503 N.ar    1  UNL1       -0.1931
     22 C         141.6558  145.3996  159.1109 C.1     1  UNL1        0.1246
     23 N         142.1548  145.6889  157.7263 N.1     1  UNL1       -0.1891
     24 O         143.3933  143.9105  161.0510 O.3     1  UNL1       -0.4610
     25 C         144.0203  142.7198  161.7136 C.3     1  UNL1        0.1846
     26 C         144.8388  142.7395  162.9705 C.3     1  UNL1        0.0621
     27 C         145.2633  141.3323  163.2694 C.3     1  UNL1        0.0724
     28 N         144.7072  140.4427  162.1972 N.3     1  UNL1       -0.2944
     29 C         143.9390  141.3003  161.2357 C.3     1  UNL1        0.1127
     30 H         144.0873  139.7468  162.6117 H       1  UNL1        0.1234
@<TRIPOS>BOND
     1    14    15    1
     2    15    12    1
     3    12    13    2
     4    12     3    1
     5     3     4   ar
     6     4     5   ar
     7     5     6   ar
     8     6     1    1
     9     1    16    1
    10    16    17   ar
    11    17    18   ar
    12    18    19   ar
    13    19    22    1
    14    22    23    3
    15    19    20   ar
    16    20    24    1
    17    25    24    1
    18    25    26    1
    19    26    27    1
    20    27    28    1
    21    28    29    1
    22    20    21   ar
    23     6     7   ar
    24     7     8   ar
    25     8     9    1
    26     9    10    1
    27     9    11    1
    28     8     3   ar
    29    21    16   ar
    30    29    25    1
    31     1     2    1
    32    28    30    1
@<TRIPOS>MOLECULE
*****
 30 32 0 0 0
SMALL
GASTEIGER

@<TRIPOS>ATOM
      1 N         138.6614  138.4725  164.5456 N.pl3   1  UNL1       -0.2820
      2 H         138.0895  137.6925  164.7295 H       1  UNL1        0.1551
      3 C         141.6796  139.8193  167.5995 C.ar    1  UNL1        0.1081
      4 C         142.1194  139.0059  166.4185 C.ar    1  UNL1        0.1080
      5 N         141.1133  138.5570  165.4005 N.ar    1  UNL1       -0.2287
      6 C         139.6675  138.9214  165.5636 C.ar    1  UNL1        0.1345
      7 C         139.2277  139.7347  166.7447 C.ar    1  UNL1        0.0492
      8 C         140.2338  140.1837  167.7627 C.ar    1  UNL1        0.0585
      9 N         139.7939  140.9971  168.9438 N.pl3   1  UNL1       -0.3038
     10 C         139.0538  140.3418  170.0719 C.3     1  UNL1        0.1122
     11 C         140.0942  142.4657  168.9967 C.3     1  UNL1        0.1122
     12 C         142.6857  140.2682  168.6175 C.2     1  UNL1        0.3441
     13 O         143.0751  139.3539  169.7411 O.2     1  UNL1       -0.2448
     14 C         143.7515  142.3494  169.7500 C.3     1  UNL1        0.2560
     15 O         143.3024  141.6315  168.5119 O.3     1  UNL1       -0.4413
     16 C         138.5267  139.2119  163.2476 C.ar    1  UNL1        0.1558
     17 C         138.6787  138.4789  161.9476 C.ar    1  UNL1        0.1342
     18 N         138.5440  139.2183  160.6495 N.ar    1  UNL1       -0.2263
     19 C         138.2572  140.6907  160.6513 C.ar    1  UNL1        0.2025
     20 C         138.1052  141.4236  161.9511 C.ar    1  UNL1        0.2543
     21 N         138.2399  140.6842  163.2493 N.ar    1  UNL1       -0.1931
     22 C         138.1225  141.4301  159.3531 C.1     1  UNL1        0.1246
     23 N         137.9878  142.1695  158.0550 N.1     1  UNL1       -0.1891
     24 O         137.8185  142.8960  161.9529 O.3     1  UNL1       -0.4610
     25 C         138.3685  143.7658  163.0442 C.3     1  UNL1        0.1846
     26 C         137.8101  143.9010  164.4298 C.3     1  UNL1        0.0621
     27 C         138.6699  144.8720  165.1834 C.3     1  UNL1        0.0724
     28 N         139.7598  145.3369  164.2635 N.3     1  UNL1       -0.2944
     29 C         139.5735  144.6533  162.9414 C.3     1  UNL1        0.1127
     30 H         140.6699  145.0930  164.6541 H       1  UNL1        0.1234
@<TRIPOS>BOND
     1    14    15    1
     2    15    12    1
     3    12    13    2
     4    12     3    1
     5     3     4   ar
     6     4     5   ar
     7     5     6   ar
     8     6     1    1
     9     1    16    1
    10    16    17   ar
    11    17    18   ar
    12    18    19   ar
    13    19    22    1
    14    22    23    3
    15    19    20   ar
    16    20    24    1
    17    25    24    1
    18    25    26    1
    19    26    27    1
    20    27    28    1
    21    28    29    1
    22    20    21   ar
    23     6     7   ar
    24     7     8   ar
    25     8     9    1
    26     9    10    1
    27     9    11    1
    28     8     3   ar
    29    21    16   ar
    30    29    25    1
    31     1     2    1
    32    28    30    1
@<TRIPOS>MOLECULE
*****
 30 32 0 0 0
SMALL
GASTEIGER

@<TRIPOS>ATOM
      1 N         141.6796  138.7142  164.6537 N.pl3   1  UNL1       -0.2820
      2 H         142.5423  138.2439  164.5915 H       1  UNL1        0.1551
      3 C         140.1224  140.0374  168.6630 C.ar    1  UNL1        0.1081
      4 C         139.1642  139.6272  167.5844 C.ar    1  UNL1        0.1080
      5 N         139.6832  139.1862  166.2480 N.ar    1  UNL1       -0.2287
      6 C         141.1605  139.1553  165.9902 C.ar    1  UNL1        0.1345
      7 C         142.1188  139.5654  167.0688 C.ar    1  UNL1        0.0492
      8 C         141.5998  140.0065  168.4052 C.ar    1  UNL1        0.0585
      9 N         142.5581  140.4167  169.4838 N.pl3   1  UNL1       -0.3038
     10 C         142.9055  139.4571  170.5831 C.3     1  UNL1        0.1122
     11 C         143.1691  141.7865  169.4631 C.3     1  UNL1        0.1122
     12 C         139.6034  140.4785  169.9994 C.2     1  UNL1        0.3441
     13 O         139.5870  139.5184  171.1517 O.2     1  UNL1       -0.2448
     14 C         140.0695  142.9972  170.4337 C.3     1  UNL1        0.2560
     15 O         139.1007  141.8797  170.1836 O.3     1  UNL1       -0.4413
     16 C         140.8843  138.9897  163.4121 C.ar    1  UNL1        0.1558
     17 C         140.0685  137.8975  162.7862 C.ar    1  UNL1        0.1342
     18 N         139.2732  138.1730  161.5446 N.ar    1  UNL1       -0.2263
     19 C         139.2937  139.5406  160.9289 C.ar    1  UNL1        0.2025
     20 C         140.1094  140.6328  161.5547 C.ar    1  UNL1        0.2543
     21 N         140.9048  140.3573  162.7964 N.ar    1  UNL1       -0.1931
     22 C         138.4984  139.8161  159.6872 C.1     1  UNL1        0.1246
     23 N         137.7031  140.0915  158.4456 N.1     1  UNL1       -0.1891
     24 O         140.1299  142.0004  160.9390 O.3     1  UNL1       -0.4610
     25 C         139.3972  143.1309  161.5986 C.3     1  UNL1        0.1846
     26 C         139.9629  144.4841  161.9129 C.3     1  UNL1        0.0621
     27 C         138.8855  145.2962  162.5683 C.3     1  UNL1        0.0724
     28 N         137.6537  144.4449  162.6591 N.3     1  UNL1       -0.2944
     29 C         137.9700  143.1067  162.0598 C.3     1  UNL1        0.1127
     30 H         136.8909  144.8836  162.1433 H       1  UNL1        0.1234
@<TRIPOS>BOND
     1    14    15    1
     2    15    12    1
     3    12    13    2
     4    12     3    1
     5     3     4   ar
     6     4     5   ar
     7     5     6   ar
     8     6     1    1
     9     1    16    1
    10    16    17   ar
    11    17    18   ar
    12    18    19   ar
    13    19    22    1
    14    22    23    3
    15    19    20   ar
    16    20    24    1
    17    25    24    1
    18    25    26    1
    19    26    27    1
    20    27    28    1
    21    28    29    1
    22    20    21   ar
    23     6     7   ar
    24     7     8   ar
    25     8     9    1
    26     9    10    1
    27     9    11    1
    28     8     3   ar
    29    21    16   ar
    30    29    25    1
    31     1     2    1
    32    28    30    1
@<TRIPOS>MOLECULE
*****
 30 32 0 0 0
SMALL
GASTEIGER

@<TRIPOS>ATOM
      1 N         139.0164  144.3184  164.8953 N.pl3   1  UNL1       -0.2820
      2 H         138.2718  144.8982  165.1759 H       1  UNL1        0.1551
      3 C         140.4784  141.0539  167.6258 C.ar    1  UNL1        0.1081
      4 C         140.7428  142.4907  167.9660 C.ar    1  UNL1        0.1080
      5 N         140.2555  143.5789  167.0558 N.ar    1  UNL1       -0.2287
      6 C         139.5037  143.2303  165.8055 C.ar    1  UNL1        0.1345
      7 C         139.2394  141.7935  165.4654 C.ar    1  UNL1        0.0492
      8 C         139.7267  140.7053  166.3755 C.ar    1  UNL1        0.0585
      9 N         139.4623  139.2685  166.0353 N.pl3   1  UNL1       -0.3038
     10 C         138.1989  138.6076  166.5014 C.3     1  UNL1        0.1122
     11 C         140.4612  138.4926  165.2290 C.3     1  UNL1        0.1122
     12 C         140.9658  139.9658  168.5360 C.2     1  UNL1        0.3441
     13 O         142.2670  139.2762  168.2509 O.2     1  UNL1       -0.2448
     14 C         140.3196  140.2978  171.0304 C.3     1  UNL1        0.2560
     15 O         140.1519  139.5671  169.7312 O.3     1  UNL1       -0.4413
     16 C         139.6635  144.5233  163.5578 C.ar    1  UNL1        0.1558
     17 C         138.8152  144.7132  162.3353 C.ar    1  UNL1        0.1342
     18 N         139.4623  144.9181  160.9977 N.ar    1  UNL1       -0.2263
     19 C         140.9578  144.9331  160.8825 C.ar    1  UNL1        0.2025
     20 C         141.8062  144.7432  162.1048 C.ar    1  UNL1        0.2543
     21 N         141.1590  144.5383  163.4425 N.ar    1  UNL1       -0.1931
     22 C         141.6049  145.1380  159.5448 C.1     1  UNL1        0.1246
     23 N         142.2520  145.3429  158.2072 N.1     1  UNL1       -0.1891
     24 O         143.3016  144.7583  161.9896 O.3     1  UNL1       -0.4610
     25 C         144.1008  143.5730  162.4440 C.3     1  UNL1        0.1846
     26 C         144.4407  143.2308  163.8643 C.3     1  UNL1        0.0621
     27 C         145.2503  141.9681  163.8560 C.3     1  UNL1        0.0724
     28 N         145.4109  141.5299  162.4304 N.3     1  UNL1       -0.2944
     29 C         144.7005  142.5217  161.5578 C.3     1  UNL1        0.1127
     30 H         145.0027  140.6036  162.3049 H       1  UNL1        0.1234
@<TRIPOS>BOND
     1    14    15    1
     2    15    12    1
     3    12    13    2
     4    12     3    1
     5     3     4   ar
     6     4     5   ar
     7     5     6   ar
     8     6     1    1
     9     1    16    1
    10    16    17   ar
    11    17    18   ar
    12    18    19   ar
    13    19    22    1
    14    22    23    3
    15    19    20   ar
    16    20    24    1
    17    25    24    1
    18    25    26    1
    19    26    27    1
    20    27    28    1
    21    28    29    1
    22    20    21   ar
    23     6     7   ar
    24     7     8   ar
    25     8     9    1
    26     9    10    1
    27     9    11    1
    28     8     3   ar
    29    21    16   ar
    30    29    25    1
    31     1     2    1
    32    28    30    1
@<TRIPOS>MOLECULE
*****
 30 32 0 0 0
SMALL
GASTEIGER

@<TRIPOS>ATOM
      1 N         139.3135  139.6695  164.8726 N.pl3   1  UNL1       -0.2820
      2 H         138.3557  139.4695  164.9817 H       1  UNL1        0.1551
      3 C         141.5331  141.8783  168.1044 C.ar    1  UNL1        0.1081
      4 C         141.3307  142.5171  166.7624 C.ar    1  UNL1        0.1080
      5 N         140.5908  141.7809  165.6852 N.ar    1  UNL1       -0.2287
      6 C         140.0534  140.4057  165.9499 C.ar    1  UNL1        0.1345
      7 C         140.2558  139.7669  167.2918 C.ar    1  UNL1        0.0492
      8 C         140.9956  140.5032  168.3691 C.ar    1  UNL1        0.0585
      9 N         141.1980  139.8643  169.7111 N.pl3   1  UNL1       -0.3038
     10 C         140.1553  140.0155  170.7787 C.3     1  UNL1        0.1122
     11 C         142.4432  139.0741  169.9854 C.3     1  UNL1        0.1122
     12 C         142.2730  142.6146  169.1816 C.2     1  UNL1        0.3441
     13 O         143.7700  142.6982  169.1406 O.2     1  UNL1       -0.2448
     14 C         140.3314  144.1364  169.9968 C.3     1  UNL1        0.2560
     15 O         141.5158  143.2672  170.3000 O.3     1  UNL1       -0.4413
     16 C         140.0329  139.2378  163.6292 C.ar    1  UNL1        0.1558
     17 C         139.2527  138.8083  162.4221 C.ar    1  UNL1        0.1342
     18 N         139.9721  138.3767  161.1787 N.ar    1  UNL1       -0.2263
     19 C         141.4717  138.3745  161.1423 C.ar    1  UNL1        0.2025
     20 C         142.2519  138.8040  162.3493 C.ar    1  UNL1        0.2543
     21 N         141.5324  139.2356  163.5928 N.ar    1  UNL1       -0.1931
     22 C         142.1911  137.9428  159.8988 C.1     1  UNL1        0.1246
     23 N         142.9104  137.5111  158.6554 N.1     1  UNL1       -0.1891
     24 O         143.7514  138.8018  162.3129 O.3     1  UNL1       -0.4610
     25 C         144.5128  140.0353  162.6986 C.3     1  UNL1        0.1846
     26 C         144.6640  141.2743  161.8667 C.3     1  UNL1        0.0621
     27 C         145.5013  142.2511  162.6379 C.3     1  UNL1        0.0724
     28 N         145.8676  141.6159  163.9465 N.3     1  UNL1       -0.2944
     29 C         145.2567  140.2464  163.9840 C.3     1  UNL1        0.1127
     30 H         145.5058  142.1775  164.7172 H       1  UNL1        0.1234
@<TRIPOS>BOND
     1    14    15    1
     2    15    12    1
     3    12    13    2
     4    12     3    1
     5     3     4   ar
     6     4     5   ar
     7     5     6   ar
     8     6     1    1
     9     1    16    1
    10    16    17   ar
    11    17    18   ar
    12    18    19   ar
    13    19    22    1
    14    22    23    3
    15    19    20   ar
    16    20    24    1
    17    25    24    1
    18    25    26    1
    19    26    27    1
    20    27    28    1
    21    28    29    1
    22    20    21   ar
    23     6     7   ar
    24     7     8   ar
    25     8     9    1
    26     9    10    1
    27     9    11    1
    28     8     3   ar
    29    21    16   ar
    30    29    25    1
    31     1     2    1
    32    28    30    1
@<TRIPOS>MOLECULE
*****
 30 32 0 0 0
SMALL
GASTEIGER

@<TRIPOS>ATOM
      1 N         138.1938  139.7365  165.2816 N.pl3   1  UNL1       -0.2820
      2 H         137.5378  139.1056  165.6569 H       1  UNL1        0.1551
      3 C         140.9495  142.0096  168.0182 C.ar    1  UNL1        0.1081
      4 C         140.4591  142.6449  166.7510 C.ar    1  UNL1        0.1080
      5 N         139.5405  141.8872  165.8388 N.ar    1  UNL1       -0.2287
      6 C         139.1124  140.4942  166.1938 C.ar    1  UNL1        0.1345
      7 C         139.6027  139.8589  167.4610 C.ar    1  UNL1        0.0492
      8 C         140.5213  140.6166  168.3732 C.ar    1  UNL1        0.0585
      9 N         141.0117  139.9812  169.6405 N.pl3   1  UNL1       -0.3038
     10 C         142.3183  139.2447  169.6534 C.3     1  UNL1        0.1122
     11 C         140.1953  140.0824  170.8949 C.3     1  UNL1        0.1122
     12 C         141.8680  142.7674  168.9304 C.2     1  UNL1        0.3441
     13 O         141.3006  143.6307  170.0179 O.2     1  UNL1       -0.2448
     14 C         144.2417  142.5093  169.9546 C.3     1  UNL1        0.2560
     15 O         143.3540  142.6618  168.7552 O.3     1  UNL1       -0.4413
     16 C         138.2748  139.9400  163.7977 C.ar    1  UNL1        0.1558
     17 C         137.5279  141.0703  163.1538 C.ar    1  UNL1        0.1342
     18 N         137.6089  141.2738  161.6700 N.ar    1  UNL1       -0.2263
     19 C         138.4368  140.3471  160.8299 C.ar    1  UNL1        0.2025
     20 C         139.1836  139.2168  161.4737 C.ar    1  UNL1        0.2543
     21 N         139.1027  139.0132  162.9577 N.ar    1  UNL1       -0.1931
     22 C         138.5177  140.5506  159.3459 C.1     1  UNL1        0.1246
     23 N         138.5987  140.7542  157.8620 N.1     1  UNL1       -0.1891
     24 O         140.0115  138.2900  160.6336 O.3     1  UNL1       -0.4610
     25 C         141.5083  138.3836  160.6661 C.3     1  UNL1        0.1846
     26 C         142.3968  137.9187  161.7816 C.3     1  UNL1        0.0621
     27 C         143.8169  138.2064  161.3937 C.3     1  UNL1        0.0724
     28 N         143.8061  138.8492  160.0384 N.3     1  UNL1       -0.2944
     29 C         142.3792  138.9588  159.5888 C.3     1  UNL1        0.1127
     30 H         144.3337  138.2767  159.3795 H       1  UNL1        0.1234
@<TRIPOS>BOND
     1    14    15    1
     2    15    12    1
     3    12    13    2
     4    12     3    1
     5     3     4   ar
     6     4     5   ar
     7     5     6   ar
     8     6     1    1
     9     1    16    1
    10    16    17   ar
    11    17    18   ar
    12    18    19   ar
    13    19    22    1
    14    22    23    3
    15    19    20   ar
    16    20    24    1
    17    25    24    1
    18    25    26    1
    19    26    27    1
    20    27    28    1
    21    28    29    1
    22    20    21   ar
    23     6     7   ar
    24     7     8   ar
    25     8     9    1
    26     9    10    1
    27     9    11    1
    28     8     3   ar
    29    21    16   ar
    30    29    25    1
    31     1     2    1
    32    28    30    1
@<TRIPOS>MOLECULE
*****
 30 32 0 0 0
SMALL
GASTEIGER

@<TRIPOS>ATOM
      1 N         138.2695  140.2968  163.7251 N.pl3   1  UNL1       -0.2820
      2 H         137.4010  140.6777  163.4610 H       1  UNL1        0.1551
      3 C         139.3834  140.0392  168.0775 C.ar    1  UNL1        0.1081
      4 C         138.4135  139.0561  167.4921 C.ar    1  UNL1        0.1080
      5 N         138.0422  139.1419  166.0413 N.ar    1  UNL1       -0.2287
      6 C         138.6408  140.2109  165.1759 C.ar    1  UNL1        0.1345
      7 C         139.6107  141.1941  165.7613 C.ar    1  UNL1        0.0492
      8 C         139.9820  141.1082  167.2121 C.ar    1  UNL1        0.0585
      9 N         140.9519  142.0914  167.7975 N.pl3   1  UNL1       -0.3038
     10 C         142.4165  141.9697  167.4972 C.3     1  UNL1        0.1122
     11 C         140.4572  143.1964  168.6831 C.3     1  UNL1        0.1122
     12 C         139.7547  139.9534  169.5283 C.2     1  UNL1        0.3441
     13 O         138.6977  140.0975  170.5827 O.2     1  UNL1       -0.2448
     14 C         141.8279  140.6063  170.9515 C.3     1  UNL1        0.2560
     15 O         141.1830  139.7234  169.9246 O.3     1  UNL1       -0.4413
     16 C         139.2215  139.8022  162.6768 C.ar    1  UNL1        0.1558
     17 C         139.0425  138.4351  162.0860 C.ar    1  UNL1        0.1342
     18 N         139.9945  137.9405  161.0377 N.ar    1  UNL1       -0.2263
     19 C         141.1255  138.8131  160.5800 C.ar    1  UNL1        0.2025
     20 C         141.3046  140.1801  161.1707 C.ar    1  UNL1        0.2543
     21 N         140.3525  140.6748  162.2191 N.ar    1  UNL1       -0.1931
     22 C         142.0775  138.3184  159.5316 C.1     1  UNL1        0.1246
     23 N         143.0295  137.8239  158.4833 N.1     1  UNL1       -0.1891
     24 O         142.4356  141.0527  160.7131 O.3     1  UNL1       -0.4610
     25 C         143.6498  141.2214  161.5775 C.3     1  UNL1        0.1846
     26 C         143.9660  140.4373  162.8165 C.3     1  UNL1        0.0621
     27 C         145.2726  140.9352  163.3594 C.3     1  UNL1        0.0724
     28 N         145.7641  142.0271  162.4560 N.3     1  UNL1       -0.2944
     29 C         144.7611  142.2040  161.3547 C.3     1  UNL1        0.1127
     30 H         146.6689  141.7694  162.0620 H       1  UNL1        0.1234
@<TRIPOS>BOND
     1    14    15    1
     2    15    12    1
     3    12    13    2
     4    12     3    1
     5     3     4   ar
     6     4     5   ar
     7     5     6   ar
     8     6     1    1
     9     1    16    1
    10    16    17   ar
    11    17    18   ar
    12    18    19   ar
    13    19    22    1
    14    22    23    3
    15    19    20   ar
    16    20    24    1
    17    25    24    1
    18    25    26    1
    19    26    27    1
    20    27    28    1
    21    28    29    1
    22    20    21   ar
    23     6     7   ar
    24     7     8   ar
    25     8     9    1
    26     9    10    1
    27     9    11    1
    28     8     3   ar
    29    21    16   ar
    30    29    25    1
    31     1     2    1
    32    28    30    1
