@<TRIPOS>MOLECULE
*****
 26 28 0 0 0
SMALL
GASTEIGER

@<TRIPOS>ATOM
      1 O         139.5601  137.4932  164.9169 O.2     1  UNL1       -0.2526
      2 C         138.8507  138.7414  164.4822 C.2     1  UNL1        0.3042
      3 N         138.3643  139.7231  165.5068 N.am    1  UNL1       -0.2847
      4 N         138.6278  139.0078  163.0230 N.am    1  UNL1       -0.2645
      5 C         139.0552  138.1229  161.8898 C.3     1  UNL1        0.0950
      6 C         138.6298  138.7741  160.6073 C.3     1  UNL1        0.0233
      7 C         137.9395  140.0615  160.9478 C.3     1  UNL1        0.0230
      8 C         137.9382  140.2060  162.4408 C.3     1  UNL1        0.0928
      9 H         137.8988  140.5423  165.2215 H       1  UNL1        0.1513
     10 C         138.5873  139.4567  166.9660 C.3     1  UNL1        0.1177
     11 C         139.5401  140.3120  167.7475 C.ar    1  UNL1       -0.0025
     12 C         139.5405  140.2571  169.2465 C.ar    1  UNL1       -0.0027
     13 C         140.4932  141.1124  170.0280 C.ar    1  UNL1        0.0036
     14 C         141.4456  142.0225  169.3105 C.ar    1  UNL1        0.0714
     15 C         141.4452  142.0773  167.8116 C.ar    1  UNL1        0.0036
     16 C         140.4924  141.2221  167.0301 C.ar    1  UNL1       -0.0027
     17 C         142.3983  142.8778  170.0921 C.3     1  UNL1        0.4186
     18 F         143.3511  143.7330  170.8737 F       1  UNL1       -0.1659
     19 F         141.4138  144.0088  170.0547 F       1  UNL1       -0.1659
     20 F         143.3829  141.7467  170.1295 F       1  UNL1       -0.1659
     21 C         137.3505  141.3480  163.2156 C.3     1  UNL1        0.0922
     22 N         138.2471  142.4034  163.7920 N.3     1  UNL1       -0.2713
     23 C         137.8274  143.5087  164.7153 C.3     1  UNL1        0.0722
     24 C         139.0416  144.3273  165.0403 C.3     1  UNL1        0.0188
     25 C         140.2117  143.7280  164.3179 C.3     1  UNL1        0.0188
     26 C         139.7206  142.5390  163.5464 C.3     1  UNL1        0.0722
@<TRIPOS>BOND
     1     1     2    2
     2     2     3   am
     3     3    10    1
     4    10    11    1
     5    11    12   ar
     6    12    13   ar
     7    13    14   ar
     8    14    17    1
     9    17    18    1
    10    17    19    1
    11    17    20    1
    12    14    15   ar
    13    15    16   ar
    14     2     4   am
    15     4     5    1
    16     5     6    1
    17     6     7    1
    18     7     8    1
    19     8    21    1
    20    21    22    1
    21    22    23    1
    22    23    24    1
    23    24    25    1
    24    25    26    1
    25    16    11   ar
    26     8     4    1
    27    26    22    1
    28     3     9    1
@<TRIPOS>MOLECULE
*****
 26 28 0 0 0
SMALL
GASTEIGER

@<TRIPOS>ATOM
      1 O         144.9141  139.7469  164.4761 O.2     1  UNL1       -0.2526
      2 C         143.6719  138.9700  164.1543 C.2     1  UNL1        0.3042
      3 N         142.8221  138.4218  165.2622 N.am    1  UNL1       -0.2847
      4 N         143.2795  138.7414  162.7247 N.am    1  UNL1       -0.2645
      5 C         144.0260  139.2259  161.5173 C.3     1  UNL1        0.0950
      6 C         143.2796  138.7721  160.2979 C.3     1  UNL1        0.0233
      7 C         142.0718  138.0070  160.7517 C.3     1  UNL1        0.0230
      8 C         142.0717  137.9881  162.2516 C.3     1  UNL1        0.0928
      9 H         142.0068  137.9119  165.0511 H       1  UNL1        0.1513
     10 C         143.2145  138.6504  166.6918 C.3     1  UNL1        0.1177
     11 C         142.4100  139.5804  167.5509 C.ar    1  UNL1       -0.0025
     12 C         142.4578  139.4517  169.0445 C.ar    1  UNL1       -0.0027
     13 C         141.6533  140.3816  169.9035 C.ar    1  UNL1        0.0036
     14 C         140.8010  141.4403  169.2688 C.ar    1  UNL1        0.0714
     15 C         140.7532  141.5691  167.7752 C.ar    1  UNL1        0.0036
     16 C         141.5577  140.6391  166.9162 C.ar    1  UNL1       -0.0027
     17 C         139.9965  142.3703  170.1279 C.3     1  UNL1        0.4186
     18 F         139.1920  143.3003  170.9869 F       1  UNL1       -0.1659
     19 F         138.8823  141.3670  170.1707 F       1  UNL1       -0.1659
     20 F         141.1106  143.3737  170.0851 F       1  UNL1       -0.1659
     21 C         141.0443  137.3311  163.1250 C.3     1  UNL1        0.0922
     22 N         140.0746  138.1700  163.9034 N.3     1  UNL1       -0.2713
     23 C         139.2831  137.7239  165.0970 C.3     1  UNL1        0.0722
     24 C         138.4454  138.8803  165.5562 C.3     1  UNL1        0.0188
     25 C         138.7192  140.0412  164.6465 C.3     1  UNL1        0.0188
     26 C         139.7261  139.6021  163.6250 C.3     1  UNL1        0.0722
@<TRIPOS>BOND
     1     1     2    2
     2     2     3   am
     3     3    10    1
     4    10    11    1
     5    11    12   ar
     6    12    13   ar
     7    13    14   ar
     8    14    17    1
     9    17    18    1
    10    17    19    1
    11    17    20    1
    12    14    15   ar
    13    15    16   ar
    14     2     4   am
    15     4     5    1
    16     5     6    1
    17     6     7    1
    18     7     8    1
    19     8    21    1
    20    21    22    1
    21    22    23    1
    22    23    24    1
    23    24    25    1
    24    25    26    1
    25    16    11   ar
    26     8     4    1
    27    26    22    1
    28     3     9    1
@<TRIPOS>MOLECULE
*****
 26 28 0 0 0
SMALL
GASTEIGER

@<TRIPOS>ATOM
      1 O         143.6815  139.4503  162.4312 O.2     1  UNL1       -0.2526
      2 C         142.3347  138.8508  162.7082 C.2     1  UNL1        0.3042
      3 N         142.0138  138.3276  164.0769 N.am    1  UNL1       -0.2847
      4 N         141.3089  138.7745  161.6165 N.am    1  UNL1       -0.2645
      5 C         141.4849  139.2540  160.2062 C.3     1  UNL1        0.0950
      6 C         140.2117  138.9810  159.4615 C.3     1  UNL1        0.0233
      7 C         139.2488  138.3328  160.4116 C.3     1  UNL1        0.0230
      8 C         139.9269  138.2052  161.7435 C.3     1  UNL1        0.0928
      9 H         141.1299  137.9341  164.2587 H       1  UNL1        0.1513
     10 C         143.0397  138.4040  165.1686 C.3     1  UNL1        0.1177
     11 C         142.9373  139.4682  166.2208 C.ar    1  UNL1       -0.0025
     12 C         142.7846  139.0847  167.6629 C.ar    1  UNL1       -0.0027
     13 C         142.6823  140.1488  168.7151 C.ar    1  UNL1        0.0036
     14 C         142.7327  141.5964  168.3252 C.ar    1  UNL1        0.0714
     15 C         142.8855  141.9798  166.8831 C.ar    1  UNL1        0.0036
     16 C         142.9878  140.9157  165.8309 C.ar    1  UNL1       -0.0027
     17 C         142.6304  142.6606  169.3775 C.3     1  UNL1        0.4186
     18 F         142.5281  143.7247  170.4297 F       1  UNL1       -0.1659
     19 F         144.0799  142.4687  169.7124 F       1  UNL1       -0.1659
     20 F         141.1810  142.8524  169.0425 F       1  UNL1       -0.1659
     21 C         139.3282  137.6123  162.9844 C.3     1  UNL1        0.0922
     22 N         138.9532  138.4998  164.1341 N.3     1  UNL1       -0.2713
     23 C         138.6990  138.0557  165.5442 C.3     1  UNL1        0.0722
     24 C         138.3552  139.2686  166.3572 C.3     1  UNL1        0.0188
     25 C         138.3970  140.4622  165.4496 C.3     1  UNL1        0.0188
     26 C         138.7666  139.9869  164.0756 C.3     1  UNL1        0.0722
@<TRIPOS>BOND
     1     1     2    2
     2     2     3   am
     3     3    10    1
     4    10    11    1
     5    11    12   ar
     6    12    13   ar
     7    13    14   ar
     8    14    17    1
     9    17    18    1
    10    17    19    1
    11    17    20    1
    12    14    15   ar
    13    15    16   ar
    14     2     4   am
    15     4     5    1
    16     5     6    1
    17     6     7    1
    18     7     8    1
    19     8    21    1
    20    21    22    1
    21    22    23    1
    22    23    24    1
    23    24    25    1
    24    25    26    1
    25    16    11   ar
    26     8     4    1
    27    26    22    1
    28     3     9    1
@<TRIPOS>MOLECULE
*****
 26 28 0 0 0
SMALL
GASTEIGER

@<TRIPOS>ATOM
      1 O         145.0138  139.5359  164.1985 O.2     1  UNL1       -0.2526
      2 C         143.7165  139.9796  163.5901 C.2     1  UNL1        0.3042
      3 N         142.9831  141.1562  164.1628 N.am    1  UNL1       -0.2847
      4 N         143.1526  139.2469  162.4090 N.am    1  UNL1       -0.2645
      5 C         143.7696  138.0593  161.7314 C.3     1  UNL1        0.0950
      6 C         142.8710  137.6515  160.6017 C.3     1  UNL1        0.0233
      7 C         141.6985  138.5870  160.5811 C.3     1  UNL1        0.0230
      8 C         141.8726  139.5729  161.6980 C.3     1  UNL1        0.0928
      9 H         142.1317  141.4474  163.7635 H       1  UNL1        0.1513
     10 C         143.5471  141.8889  165.3439 C.3     1  UNL1        0.1177
     11 C         142.6703  142.2041  166.5195 C.ar    1  UNL1       -0.0025
     12 C         141.2246  142.5431  166.3074 C.ar    1  UNL1       -0.0027
     13 C         140.3480  142.8582  167.4830 C.ar    1  UNL1        0.0036
     14 C         140.9170  142.8344  168.8707 C.ar    1  UNL1        0.0714
     15 C         142.3626  142.4953  169.0828 C.ar    1  UNL1        0.0036
     16 C         143.2393  142.1802  167.9072 C.ar    1  UNL1       -0.0027
     17 C         140.0402  143.1495  170.0464 C.3     1  UNL1        0.4186
     18 F         139.1635  143.4646  171.2219 F       1  UNL1       -0.1659
     19 F         140.4038  144.6000  169.9288 F       1  UNL1       -0.1659
     20 F         139.6766  141.6991  170.1640 F       1  UNL1       -0.1659
     21 C         140.9319  140.6890  162.0434 C.3     1  UNL1        0.0922
     22 N         139.9757  140.5366  163.1890 N.3     1  UNL1       -0.2713
     23 C         139.8912  139.3606  164.1164 C.3     1  UNL1        0.0722
     24 C         138.7994  139.6305  165.1089 C.3     1  UNL1        0.0188
     25 C         138.2090  140.9733  164.7949 C.3     1  UNL1        0.0188
     26 C         138.9360  141.5333  163.6083 C.3     1  UNL1        0.0722
@<TRIPOS>BOND
     1     1     2    2
     2     2     3   am
     3     3    10    1
     4    10    11    1
     5    11    12   ar
     6    12    13   ar
     7    13    14   ar
     8    14    17    1
     9    17    18    1
    10    17    19    1
    11    17    20    1
    12    14    15   ar
    13    15    16   ar
    14     2     4   am
    15     4     5    1
    16     5     6    1
    17     6     7    1
    18     7     8    1
    19     8    21    1
    20    21    22    1
    21    22    23    1
    22    23    24    1
    23    24    25    1
    24    25    26    1
    25    16    11   ar
    26     8     4    1
    27    26    22    1
    28     3     9    1
@<TRIPOS>MOLECULE
*****
 26 28 0 0 0
SMALL
GASTEIGER

@<TRIPOS>ATOM
      1 O         138.4894  139.7318  169.6609 O.2     1  UNL1       -0.2526
      2 C         139.6127  140.3535  168.8854 C.2     1  UNL1        0.3042
      3 N         139.6588  140.2172  167.3922 N.am    1  UNL1       -0.2847
      4 N         140.6899  141.1117  169.6028 N.am    1  UNL1       -0.2645
      5 C         140.7769  141.3306  171.0842 C.3     1  UNL1        0.0950
      6 C         142.0100  142.1382  171.3618 C.3     1  UNL1        0.0233
      7 C         142.6852  142.4185  170.0520 C.3     1  UNL1        0.0230
      8 C         141.8693  141.7841  168.9649 C.3     1  UNL1        0.0928
      9 H         140.3960  140.6252  166.8832 H       1  UNL1        0.1513
     10 C         138.5816  139.4590  166.6748 C.3     1  UNL1        0.1177
     11 C         138.7097  139.1830  165.2059 C.ar    1  UNL1       -0.0025
     12 C         138.1606  140.1596  164.2086 C.ar    1  UNL1       -0.0027
     13 C         138.2888  139.8836  162.7398 C.ar    1  UNL1        0.0036
     14 C         138.9661  138.6310  162.2684 C.ar    1  UNL1        0.0714
     15 C         139.5153  137.6544  163.2657 C.ar    1  UNL1        0.0036
     16 C         139.3871  137.9304  164.7345 C.ar    1  UNL1       -0.0027
     17 C         139.0943  138.3550  160.7995 C.3     1  UNL1        0.4186
     18 F         139.2224  138.0790  159.3307 F       1  UNL1       -0.1659
     19 F         140.4621  137.7829  161.0263 F       1  UNL1       -0.1659
     20 F         137.7264  138.9271  160.5727 F       1  UNL1       -0.1659
     21 C         142.1786  141.8163  167.4975 C.3     1  UNL1        0.0922
     22 N         142.5774  140.5569  166.7872 N.3     1  UNL1       -0.2713
     23 C         142.6485  140.3677  165.3008 C.3     1  UNL1        0.0722
     24 C         143.0903  138.9594  165.0334 C.3     1  UNL1        0.0188
     25 C         143.2922  138.2781  166.3545 C.3     1  UNL1        0.0188
     26 C         142.9753  139.2655  167.4384 C.3     1  UNL1        0.0722
@<TRIPOS>BOND
     1     1     2    2
     2     2     3   am
     3     3    10    1
     4    10    11    1
     5    11    12   ar
     6    12    13   ar
     7    13    14   ar
     8    14    17    1
     9    17    18    1
    10    17    19    1
    11    17    20    1
    12    14    15   ar
    13    15    16   ar
    14     2     4   am
    15     4     5    1
    16     5     6    1
    17     6     7    1
    18     7     8    1
    19     8    21    1
    20    21    22    1
    21    22    23    1
    22    23    24    1
    23    24    25    1
    24    25    26    1
    25    16    11   ar
    26     8     4    1
    27    26    22    1
    28     3     9    1
@<TRIPOS>MOLECULE
*****
 26 28 0 0 0
SMALL
GASTEIGER

@<TRIPOS>ATOM
      1 O         143.2428  141.8216  161.8383 O.2     1  UNL1       -0.2526
      2 C         142.2835  142.9614  162.0123 C.2     1  UNL1        0.3042
      3 N         141.7042  143.2545  163.3646 N.am    1  UNL1       -0.2847
      4 N         141.9033  143.8082  160.8340 N.am    1  UNL1       -0.2645
      5 C         142.3985  143.6367  159.4286 C.3     1  UNL1        0.0950
      6 C         141.7625  144.6977  158.5802 C.3     1  UNL1        0.0233
      7 C         140.8741  145.5250  159.4614 C.3     1  UNL1        0.0230
      8 C         140.9612  144.9753  160.8543 C.3     1  UNL1        0.0928
      9 H         141.0746  144.0027  163.4788 H       1  UNL1        0.1513
     10 C         142.0844  142.4077  164.5429 C.3     1  UNL1        0.1177
     11 C         141.0678  141.5052  165.1771 C.ar    1  UNL1       -0.0025
     12 C         140.8001  141.5955  166.6502 C.ar    1  UNL1       -0.0027
     13 C         139.7835  140.6931  167.2844 C.ar    1  UNL1        0.0036
     14 C         139.0347  139.7004  166.4454 C.ar    1  UNL1        0.0714
     15 C         139.3025  139.6101  164.9723 C.ar    1  UNL1        0.0036
     16 C         140.3190  140.5126  164.3381 C.ar    1  UNL1       -0.0027
     17 C         138.0181  138.7979  167.0796 C.3     1  UNL1        0.4186
     18 F         137.0016  137.8955  167.7139 F       1  UNL1       -0.1659
     19 F         137.8392  138.0818  165.7739 F       1  UNL1       -0.1659
     20 F         138.1971  139.5140  168.3854 F       1  UNL1       -0.1659
     21 C         140.2338  145.5005  162.0564 C.3     1  UNL1        0.0922
     22 N         139.2444  144.6307  162.7736 N.3     1  UNL1       -0.2713
     23 C         138.8568  144.7425  164.2184 C.3     1  UNL1        0.0722
     24 C         137.8417  143.6773  164.5098 C.3     1  UNL1        0.0188
     25 C         137.6019  142.9071  163.2451 C.3     1  UNL1        0.0188
     26 C         138.4689  143.4964  162.1721 C.3     1  UNL1        0.0722
@<TRIPOS>BOND
     1     1     2    2
     2     2     3   am
     3     3    10    1
     4    10    11    1
     5    11    12   ar
     6    12    13   ar
     7    13    14   ar
     8    14    17    1
     9    17    18    1
    10    17    19    1
    11    17    20    1
    12    14    15   ar
    13    15    16   ar
    14     2     4   am
    15     4     5    1
    16     5     6    1
    17     6     7    1
    18     7     8    1
    19     8    21    1
    20    21    22    1
    21    22    23    1
    22    23    24    1
    23    24    25    1
    24    25    26    1
    25    16    11   ar
    26     8     4    1
    27    26    22    1
    28     3     9    1
@<TRIPOS>MOLECULE
*****
 26 28 0 0 0
SMALL
GASTEIGER

@<TRIPOS>ATOM
      1 O         137.2312  141.2727  163.2244 O.2     1  UNL1       -0.2526
      2 C         138.1805  140.1222  163.0654 C.2     1  UNL1        0.3042
      3 N         138.6983  139.4042  164.2763 N.am    1  UNL1       -0.2847
      4 N         138.6121  139.6899  161.6954 N.am    1  UNL1       -0.2645
      5 C         138.1805  140.3085  160.3989 C.3     1  UNL1        0.0950
      6 C         138.8527  139.5639  159.2836 C.3     1  UNL1        0.0233
      7 C         139.6998  138.4851  159.8909 C.3     1  UNL1        0.0230
      8 C         139.5511  138.5630  161.3815 C.3     1  UNL1        0.0928
      9 H         139.3214  138.6491  164.1720 H       1  UNL1        0.1513
     10 C         138.2667  139.8365  165.6463 C.3     1  UNL1        0.1177
     11 C         139.2406  140.5227  166.5578 C.ar    1  UNL1       -0.0025
     12 C         139.5251  139.9538  167.9162 C.ar    1  UNL1       -0.0027
     13 C         140.4990  140.6399  168.8277 C.ar    1  UNL1        0.0036
     14 C         141.1884  141.8949  168.3806 C.ar    1  UNL1        0.0714
     15 C         140.9039  142.4637  167.0222 C.ar    1  UNL1        0.0036
     16 C         139.9300  141.7776  166.1108 C.ar    1  UNL1       -0.0027
     17 C         142.1623  142.5810  169.2922 C.3     1  UNL1        0.4186
     18 F         143.1362  143.2670  170.2036 F       1  UNL1       -0.1659
     19 F         141.1295  143.6202  169.6136 F       1  UNL1       -0.1659
     20 F         143.1951  141.5418  168.9708 F       1  UNL1       -0.1659
     21 C         140.2233  137.6706  162.3824 C.3     1  UNL1        0.0922
     22 N         141.1993  138.2470  163.3648 N.3     1  UNL1       -0.2713
     23 C         141.5640  137.6568  164.6948 C.3     1  UNL1        0.0722
     24 C         142.5721  138.5597  165.3417 C.3     1  UNL1        0.0188
     25 C         142.8305  139.7079  164.4116 C.3     1  UNL1        0.0188
     26 C         141.9820  139.5145  163.1897 C.3     1  UNL1        0.0722
@<TRIPOS>BOND
     1     1     2    2
     2     2     3   am
     3     3    10    1
     4    10    11    1
     5    11    12   ar
     6    12    13   ar
     7    13    14   ar
     8    14    17    1
     9    17    18    1
    10    17    19    1
    11    17    20    1
    12    14    15   ar
    13    15    16   ar
    14     2     4   am
    15     4     5    1
    16     5     6    1
    17     6     7    1
    18     7     8    1
    19     8    21    1
    20    21    22    1
    21    22    23    1
    22    23    24    1
    23    24    25    1
    24    25    26    1
    25    16    11   ar
    26     8     4    1
    27    26    22    1
    28     3     9    1
@<TRIPOS>MOLECULE
*****
 26 28 0 0 0
SMALL
GASTEIGER

@<TRIPOS>ATOM
      1 O         142.8126  140.3806  164.5865 O.2     1  UNL1       -0.2526
      2 C         142.3327  141.6388  163.9258 C.2     1  UNL1        0.3042
      3 N         141.1401  141.6007  163.0167 N.am    1  UNL1       -0.2847
      4 N         143.0452  142.9352  164.1742 N.am    1  UNL1       -0.2645
      5 C         144.2452  143.1272  165.0534 C.3     1  UNL1        0.0950
      6 C         144.6245  144.5778  165.0097 C.3     1  UNL1        0.0233
      7 C         143.6589  145.2823  164.1033 C.3     1  UNL1        0.0230
      8 C         142.6828  144.2671  163.5870 C.3     1  UNL1        0.0928
      9 H         140.8251  142.4265  162.5830 H       1  UNL1        0.1513
     10 C         140.4276  140.3043  162.7682 C.3     1  UNL1        0.1177
     11 C         139.6635  139.6439  163.8774 C.ar    1  UNL1       -0.0025
     12 C         138.8738  140.4764  164.8434 C.ar    1  UNL1       -0.0027
     13 C         138.1098  139.8159  165.9525 C.ar    1  UNL1        0.0036
     14 C         138.1356  138.3230  166.0955 C.ar    1  UNL1        0.0714
     15 C         138.9254  137.4905  165.1295 C.ar    1  UNL1        0.0036
     16 C         139.6893  138.1509  164.0205 C.ar    1  UNL1       -0.0027
     17 C         137.3716  137.6625  167.2047 C.3     1  UNL1        0.4186
     18 F         136.6076  137.0020  168.3138 F       1  UNL1       -0.1659
     19 F         137.3484  138.9581  167.9603 F       1  UNL1       -0.1659
     20 F         137.3947  136.3669  166.4491 F       1  UNL1       -0.1659
     21 C         141.5443  144.5364  162.6483 C.3     1  UNL1        0.0922
     22 N         140.1295  144.4271  163.1343 N.3     1  UNL1       -0.2713
     23 C         138.9159  144.2231  162.2766 C.3     1  UNL1        0.0722
     24 C         137.7161  144.1725  163.1756 C.3     1  UNL1        0.0188
     25 C         138.1883  144.3453  164.5889 C.3     1  UNL1        0.0188
     26 C         139.6798  144.5026  164.5634 C.3     1  UNL1        0.0722
@<TRIPOS>BOND
     1     1     2    2
     2     2     3   am
     3     3    10    1
     4    10    11    1
     5    11    12   ar
     6    12    13   ar
     7    13    14   ar
     8    14    17    1
     9    17    18    1
    10    17    19    1
    11    17    20    1
    12    14    15   ar
    13    15    16   ar
    14     2     4   am
    15     4     5    1
    16     5     6    1
    17     6     7    1
    18     7     8    1
    19     8    21    1
    20    21    22    1
    21    22    23    1
    22    23    24    1
    23    24    25    1
    24    25    26    1
    25    16    11   ar
    26     8     4    1
    27    26    22    1
    28     3     9    1
@<TRIPOS>MOLECULE
*****
 26 28 0 0 0
SMALL
GASTEIGER

@<TRIPOS>ATOM
      1 O         138.5014  139.9125  169.6951 O.2     1  UNL1       -0.2526
      2 C         139.7429  140.2440  168.9212 C.2     1  UNL1        0.3042
      3 N         139.8671  139.8233  167.4867 N.am    1  UNL1       -0.2847
      4 N         140.8600  140.9960  169.5817 N.am    1  UNL1       -0.2645
      5 C         140.8787  141.4797  171.0014 C.3     1  UNL1        0.0950
      6 C         142.1849  142.1791  171.2357 C.3     1  UNL1        0.0233
      7 C         142.9734  142.1276  169.9607 C.3     1  UNL1        0.0230
      8 C         142.1546  141.3965  168.9385 C.3     1  UNL1        0.0928
      9 H         140.6819  140.0409  166.9788 H       1  UNL1        0.1513
     10 C         138.7500  139.0713  166.8262 C.3     1  UNL1        0.1177
     11 C         138.5624  139.1588  165.3405 C.ar    1  UNL1       -0.0025
     12 C         138.0898  140.4392  164.7183 C.ar    1  UNL1       -0.0027
     13 C         137.9023  140.5267  163.2327 C.ar    1  UNL1        0.0036
     14 C         138.1874  139.3337  162.3692 C.ar    1  UNL1        0.0714
     15 C         138.6600  138.0533  162.9914 C.ar    1  UNL1        0.0036
     16 C         138.8475  137.9659  164.4770 C.ar    1  UNL1       -0.0027
     17 C         137.9998  139.4213  160.8835 C.3     1  UNL1        0.4186
     18 F         137.8123  139.5087  159.3979 F       1  UNL1       -0.1659
     19 F         137.3501  140.7636  161.0446 F       1  UNL1       -0.1659
     20 F         138.6495  138.0789  160.7225 F       1  UNL1       -0.1659
     21 C         142.5593  141.1151  167.5218 C.3     1  UNL1        0.0922
     22 N         141.8536  141.8010  166.3898 N.3     1  UNL1       -0.2713
     23 C         140.8290  142.8889  166.5196 C.3     1  UNL1        0.0722
     24 C         140.3907  143.2798  165.1393 C.3     1  UNL1        0.0188
     25 C         141.1444  142.4335  164.1565 C.3     1  UNL1        0.0188
     26 C         142.0485  141.5196  164.9294 C.3     1  UNL1        0.0722
@<TRIPOS>BOND
     1     1     2    2
     2     2     3   am
     3     3    10    1
     4    10    11    1
     5    11    12   ar
     6    12    13   ar
     7    13    14   ar
     8    14    17    1
     9    17    18    1
    10    17    19    1
    11    17    20    1
    12    14    15   ar
    13    15    16   ar
    14     2     4   am
    15     4     5    1
    16     5     6    1
    17     6     7    1
    18     7     8    1
    19     8    21    1
    20    21    22    1
    21    22    23    1
    22    23    24    1
    23    24    25    1
    24    25    26    1
    25    16    11   ar
    26     8     4    1
    27    26    22    1
    28     3     9    1
