@<TRIPOS>MOLECULE
*****
 27 30 0 0 0
SMALL
GASTEIGER

@<TRIPOS>ATOM
      1 C         141.6023  142.3406  165.8470 C.3     1  UNL1        0.1702
      2 C         140.5011  143.1950  165.2928 C.3     1  UNL1        0.0596
      3 C         140.8235  144.3137  164.3469 C.3     1  UNL1        0.0614
      4 C         141.5805  145.2723  163.4764 C.3     1  UNL1        0.0175
      5 C         143.0382  144.9316  163.5703 C.3     1  UNL1        0.0175
      6 C         143.1822  143.7624  164.4989 C.3     1  UNL1        0.0614
      7 C         143.0260  142.6049  165.4554 C.3     1  UNL1        0.0596
      8 N         141.8133  143.3805  164.9789 N.3     1  UNL1       -0.2713
      9 O         141.2800  141.2219  166.7929 O.3     1  UNL1       -0.4639
     10 C         139.5382  138.3522  164.6761 C.ar    1  UNL1        0.1373
     11 C         138.3832  138.0037  165.5675 C.ar    1  UNL1        0.0240
     12 C         138.1939  138.7279  166.8673 C.ar    1  UNL1        0.0065
     13 C         139.1594  139.8006  167.2758 C.ar    1  UNL1        0.0577
     14 C         140.3144  140.1491  166.3844 C.ar    1  UNL1        0.2248
     15 N         140.5038  139.4249  165.0846 N.ar    1  UNL1       -0.2071
     16 N         138.6184  137.5961  162.3669 N.am    1  UNL1       -0.3241
     17 C         139.7275  137.6280  163.3763 C.2     1  UNL1        0.2606
     18 O         141.0261  136.9355  163.0857 O.2     1  UNL1       -0.2687
     19 H         138.7427  137.1207  161.5138 H       1  UNL1        0.1453
     20 H         137.7661  138.0505  162.5576 H       1  UNL1        0.1453
     21 C         141.4909  142.2618  165.9247 C.3     1  UNL1        0.0991
     22 C         141.7313  142.4306  167.3957 C.ar    1  UNL1       -0.0061
     23 C         143.0381  142.0040  167.9959 C.ar    1  UNL1       -0.0029
     24 C         143.2785  142.1727  169.4668 C.ar    1  UNL1       -0.0003
     25 C         142.2121  142.7680  170.3376 C.ar    1  UNL1       -0.0000
     26 C         140.9052  143.1947  169.7374 C.ar    1  UNL1       -0.0003
     27 C         140.6649  143.0259  168.2664 C.ar    1  UNL1       -0.0029
@<TRIPOS>BOND
     1    16    17   am
     2    17    18    2
     3    17    10    1
     4    10    11   ar
     5    11    12   ar
     6    12    13   ar
     7    13    14   ar
     8    14     9    1
     9     1     9    1
    10     1     2    1
    11     3     2    1
    12     3     4    1
    13     4     5    1
    14     6     5    1
    15     6     7    1
    16     6     8    1
    17     8    21    1
    18    21    22    1
    19    22    23   ar
    20    23    24   ar
    21    24    25   ar
    22    25    26   ar
    23    26    27   ar
    24    14    15   ar
    25    15    10   ar
    26     7     1    1
    27    27    22   ar
    28     8     3    1
    29    16    19    1
    30    16    20    1
@<TRIPOS>MOLECULE
*****
 27 30 0 0 0
SMALL
GASTEIGER

@<TRIPOS>ATOM
      1 C         140.7622  142.0288  167.2897 C.3     1  UNL1        0.1702
      2 C         142.1023  141.3567  167.3378 C.3     1  UNL1        0.0596
      3 C         143.0368  141.6277  168.4794 C.3     1  UNL1        0.0614
      4 C         143.6141  142.1737  169.7516 C.3     1  UNL1        0.0175
      5 C         142.6061  143.1062  170.3553 C.3     1  UNL1        0.0175
      6 C         141.4059  143.1367  169.4561 C.3     1  UNL1        0.0614
      7 C         140.3565  142.9719  168.3833 C.3     1  UNL1        0.0596
      8 N         141.6720  142.2229  168.2967 N.3     1  UNL1       -0.2713
      9 O         139.8276  141.7577  166.1481 O.3     1  UNL1       -0.4639
     10 C         139.3316  138.3053  164.2549 C.ar    1  UNL1        0.1373
     11 C         138.5213  137.5438  165.2616 C.ar    1  UNL1        0.0240
     12 C         138.1465  138.1870  166.5638 C.ar    1  UNL1        0.0065
     13 C         138.5819  139.5916  166.8593 C.ar    1  UNL1        0.0577
     14 C         139.3922  140.3530  165.8526 C.ar    1  UNL1        0.2248
     15 N         139.7671  139.7100  164.5504 N.ar    1  UNL1       -0.2071
     16 N         138.7558  137.7062  161.7933 N.am    1  UNL1       -0.3241
     17 C         139.7065  137.6621  162.9527 C.2     1  UNL1        0.2606
     18 O         141.0322  136.9748  162.8098 O.2     1  UNL1       -0.2687
     19 H         139.0018  137.2840  160.9386 H       1  UNL1        0.1453
     20 H         137.8857  138.1573  161.8870 H       1  UNL1        0.1453
     21 C         140.7376  141.9518  167.1551 C.3     1  UNL1        0.0991
     22 C         140.5815  142.9622  166.0574 C.ar    1  UNL1       -0.0061
     23 C         139.3224  143.7712  165.9562 C.ar    1  UNL1       -0.0029
     24 C         139.1664  144.7815  164.8587 C.ar    1  UNL1       -0.0003
     25 C         140.2693  144.9829  163.8623 C.ar    1  UNL1       -0.0000
     26 C         141.5285  144.1739  163.9635 C.ar    1  UNL1       -0.0003
     27 C         141.6845  143.1635  165.0611 C.ar    1  UNL1       -0.0029
@<TRIPOS>BOND
     1    16    17   am
     2    17    18    2
     3    17    10    1
     4    10    11   ar
     5    11    12   ar
     6    12    13   ar
     7    13    14   ar
     8    14     9    1
     9     1     9    1
    10     1     2    1
    11     3     2    1
    12     3     4    1
    13     4     5    1
    14     6     5    1
    15     6     7    1
    16     6     8    1
    17     8    21    1
    18    21    22    1
    19    22    23   ar
    20    23    24   ar
    21    24    25   ar
    22    25    26   ar
    23    26    27   ar
    24    14    15   ar
    25    15    10   ar
    26     7     1    1
    27    27    22   ar
    28     8     3    1
    29    16    19    1
    30    16    20    1
@<TRIPOS>MOLECULE
*****
 27 30 0 0 0
SMALL
GASTEIGER

@<TRIPOS>ATOM
      1 C         140.4644  141.6562  166.6201 C.3     1  UNL1        0.1702
      2 C         139.8757  140.3428  167.0426 C.3     1  UNL1        0.0596
      3 C         139.4861  140.1215  168.4741 C.3     1  UNL1        0.0614
      4 C         139.2560  140.3401  169.9402 C.3     1  UNL1        0.0175
      5 C         139.7109  141.7288  170.2787 C.3     1  UNL1        0.0175
      6 C         140.2220  142.3685  169.0219 C.3     1  UNL1        0.0614
      7 C         140.6635  142.7482  167.6290 C.3     1  UNL1        0.0596
      8 N         140.0831  141.3751  167.9066 N.3     1  UNL1       -0.2713
      9 O         140.8541  141.8776  165.1885 O.3     1  UNL1       -0.4639
     10 C         143.1866  139.3366  163.2258 C.ar    1  UNL1        0.1373
     11 C         144.5418  139.9034  163.5294 C.ar    1  UNL1        0.0240
     12 C         144.6678  141.1282  164.3861 C.ar    1  UNL1        0.0065
     13 C         143.4386  141.7862  164.9391 C.ar    1  UNL1        0.0577
     14 C         142.0834  141.2195  164.6355 C.ar    1  UNL1        0.2248
     15 N         141.9574  139.9947  163.7788 N.ar    1  UNL1       -0.2071
     16 N         141.8225  137.2684  162.4436 N.am    1  UNL1       -0.3241
     17 C         143.0607  138.1118  162.3691 C.2     1  UNL1        0.2606
     18 O         144.1731  137.7304  161.4377 O.2     1  UNL1       -0.2687
     19 H         141.7399  136.4646  161.8813 H       1  UNL1        0.1453
     20 H         141.0924  137.5188  163.0548 H       1  UNL1        0.1453
     21 C         140.4727  141.5964  166.4751 C.3     1  UNL1        0.0991
     22 C         139.5977  142.4215  165.5786 C.ar    1  UNL1       -0.0061
     23 C         139.8344  143.8972  165.4509 C.ar    1  UNL1       -0.0029
     24 C         138.9595  144.7223  164.5545 C.ar    1  UNL1       -0.0003
     25 C         137.8479  144.0717  163.7856 C.ar    1  UNL1       -0.0000
     26 C         137.6112  142.5959  163.9133 C.ar    1  UNL1       -0.0003
     27 C         138.4862  141.7709  164.8098 C.ar    1  UNL1       -0.0029
@<TRIPOS>BOND
     1    16    17   am
     2    17    18    2
     3    17    10    1
     4    10    11   ar
     5    11    12   ar
     6    12    13   ar
     7    13    14   ar
     8    14     9    1
     9     1     9    1
    10     1     2    1
    11     3     2    1
    12     3     4    1
    13     4     5    1
    14     6     5    1
    15     6     7    1
    16     6     8    1
    17     8    21    1
    18    21    22    1
    19    22    23   ar
    20    23    24   ar
    21    24    25   ar
    22    25    26   ar
    23    26    27   ar
    24    14    15   ar
    25    15    10   ar
    26     7     1    1
    27    27    22   ar
    28     8     3    1
    29    16    19    1
    30    16    20    1
@<TRIPOS>MOLECULE
*****
 27 30 0 0 0
SMALL
GASTEIGER

@<TRIPOS>ATOM
      1 C         140.0991  140.8070  165.1285 C.3     1  UNL1        0.1702
      2 C         139.0364  139.8256  165.5254 C.3     1  UNL1        0.0596
      3 C         138.8106  138.5914  164.7034 C.3     1  UNL1        0.0614
      4 C         138.9348  137.5475  163.6335 C.3     1  UNL1        0.0175
      5 C         140.0315  137.9681  162.7006 C.3     1  UNL1        0.0175
      6 C         140.5852  139.2719  163.1941 C.3     1  UNL1        0.0614
      7 C         140.9360  140.5541  163.9096 C.3     1  UNL1        0.0596
      8 N         139.8306  139.6571  164.4319 N.3     1  UNL1       -0.2713
      9 O         140.3249  142.0413  165.9504 O.3     1  UNL1       -0.4639
     10 C         141.2378  141.4784  169.7713 C.ar    1  UNL1        0.1373
     11 C         142.7026  141.8015  169.7634 C.ar    1  UNL1        0.0240
     12 C         143.3748  142.2045  168.4845 C.ar    1  UNL1        0.0065
     13 C         142.5822  142.2845  167.2135 C.ar    1  UNL1        0.0577
     14 C         141.1175  141.9614  167.2215 C.ar    1  UNL1        0.2248
     15 N         140.4453  141.5584  168.5003 N.ar    1  UNL1       -0.2071
     16 N         139.9688  139.7058  171.1847 N.am    1  UNL1       -0.3241
     17 C         140.5657  141.0754  171.0503 C.2     1  UNL1        0.2606
     18 O         140.4904  142.0419  172.1950 O.2     1  UNL1       -0.2687
     19 H         139.5276  139.4413  172.0241 H       1  UNL1        0.1453
     20 H         140.0182  139.0714  170.4334 H       1  UNL1        0.1453
     21 C         140.0564  140.8914  165.2538 C.3     1  UNL1        0.0991
     22 C         139.6729  142.2355  164.7095 C.ar    1  UNL1       -0.0061
     23 C         140.7269  143.1513  164.1615 C.ar    1  UNL1       -0.0029
     24 C         140.3435  144.4954  163.6172 C.ar    1  UNL1       -0.0003
     25 C         138.9060  144.9237  163.6209 C.ar    1  UNL1       -0.0000
     26 C         137.8518  144.0080  164.1690 C.ar    1  UNL1       -0.0003
     27 C         138.2354  142.6639  164.7133 C.ar    1  UNL1       -0.0029
@<TRIPOS>BOND
     1    16    17   am
     2    17    18    2
     3    17    10    1
     4    10    11   ar
     5    11    12   ar
     6    12    13   ar
     7    13    14   ar
     8    14     9    1
     9     1     9    1
    10     1     2    1
    11     3     2    1
    12     3     4    1
    13     4     5    1
    14     6     5    1
    15     6     7    1
    16     6     8    1
    17     8    21    1
    18    21    22    1
    19    22    23   ar
    20    23    24   ar
    21    24    25   ar
    22    25    26   ar
    23    26    27   ar
    24    14    15   ar
    25    15    10   ar
    26     7     1    1
    27    27    22   ar
    28     8     3    1
    29    16    19    1
    30    16    20    1
@<TRIPOS>MOLECULE
*****
 27 30 0 0 0
SMALL
GASTEIGER

@<TRIPOS>ATOM
      1 C         141.9785  142.0259  164.7903 C.3     1  UNL1        0.1702
      2 C         143.1925  142.7693  165.2630 C.3     1  UNL1        0.0596
      3 C         144.5375  142.4596  164.6758 C.3     1  UNL1        0.0614
      4 C         145.6236  141.8445  163.8438 C.3     1  UNL1        0.0175
      5 C         144.9983  140.8072  162.9589 C.3     1  UNL1        0.0175
      6 C         143.5259  140.7812  163.2439 C.3     1  UNL1        0.0614
      7 C         142.1096  140.9727  163.7303 C.3     1  UNL1        0.0596
      8 N         143.2411  141.8024  164.3050 N.3     1  UNL1       -0.2713
      9 O         140.6334  142.3356  165.3775 O.3     1  UNL1       -0.4639
     10 C         140.0529  142.1227  169.2977 C.ar    1  UNL1        0.1373
     11 C         139.5231  140.7257  169.4303 C.ar    1  UNL1        0.0240
     12 C         139.3633  139.8654  168.2120 C.ar    1  UNL1        0.0065
     13 C         139.7334  140.4020  166.8612 C.ar    1  UNL1        0.0577
     14 C         140.2633  141.7989  166.7285 C.ar    1  UNL1        0.2248
     15 N         140.4231  142.6593  167.9467 N.ar    1  UNL1       -0.2071
     16 N         140.1828  144.4773  170.3881 N.am    1  UNL1       -0.3241
     17 C         140.2127  142.9830  170.5160 C.2     1  UNL1        0.2606
     18 O         140.4024  142.3491  171.8622 O.2     1  UNL1       -0.2687
     19 H         140.2877  145.0420  171.1877 H       1  UNL1        0.1453
     20 H         140.0583  144.8934  169.5046 H       1  UNL1        0.1453
     21 C         141.8961  142.1122  164.8923 C.3     1  UNL1        0.0991
     22 C         140.8926  142.8940  164.0974 C.ar    1  UNL1       -0.0061
     23 C         139.8806  142.1767  163.2540 C.ar    1  UNL1       -0.0029
     24 C         138.8772  142.9585  162.4592 C.ar    1  UNL1       -0.0003
     25 C         138.8858  144.4577  162.5077 C.ar    1  UNL1       -0.0000
     26 C         139.8978  145.1751  163.3511 C.ar    1  UNL1       -0.0003
     27 C         140.9012  144.3932  164.1459 C.ar    1  UNL1       -0.0029
@<TRIPOS>BOND
     1    16    17   am
     2    17    18    2
     3    17    10    1
     4    10    11   ar
     5    11    12   ar
     6    12    13   ar
     7    13    14   ar
     8    14     9    1
     9     1     9    1
    10     1     2    1
    11     3     2    1
    12     3     4    1
    13     4     5    1
    14     6     5    1
    15     6     7    1
    16     6     8    1
    17     8    21    1
    18    21    22    1
    19    22    23   ar
    20    23    24   ar
    21    24    25   ar
    22    25    26   ar
    23    26    27   ar
    24    14    15   ar
    25    15    10   ar
    26     7     1    1
    27    27    22   ar
    28     8     3    1
    29    16    19    1
    30    16    20    1
@<TRIPOS>MOLECULE
*****
 27 30 0 0 0
SMALL
GASTEIGER

@<TRIPOS>ATOM
      1 C         140.1954  141.7087  165.9041 C.3     1  UNL1        0.1702
      2 C         139.1861  140.8462  165.2059 C.3     1  UNL1        0.0596
      3 C         138.1470  141.4721  164.3236 C.3     1  UNL1        0.0614
      4 C         137.3335  142.4868  163.5761 C.3     1  UNL1        0.0175
      5 C         137.8990  143.8440  163.8729 C.3     1  UNL1        0.0175
      6 C         139.0620  143.6682  164.8038 C.3     1  UNL1        0.0614
      7 C         140.1656  143.1971  165.7199 C.3     1  UNL1        0.0596
      8 N         139.2153  142.2023  165.0823 N.3     1  UNL1       -0.2713
      9 O         141.2346  141.0828  166.7865 O.3     1  UNL1       -0.4639
     10 C         144.3171  140.2958  164.4142 C.ar    1  UNL1        0.1373
     11 C         144.7627  138.9709  164.9584 C.ar    1  UNL1        0.0240
     12 C         144.0322  138.3501  166.1121 C.ar    1  UNL1        0.0065
     13 C         142.8562  139.0540  166.7214 C.ar    1  UNL1        0.0577
     14 C         142.4106  140.3789  166.1771 C.ar    1  UNL1        0.2248
     15 N         143.1410  140.9997  165.0235 N.ar    1  UNL1       -0.2071
     16 N         146.1904  141.8547  163.5138 N.am    1  UNL1       -0.3241
     17 C         145.0476  140.9166  163.2605 C.2     1  UNL1        0.2606
     18 O         144.6353  140.5995  161.8535 O.2     1  UNL1       -0.2687
     19 H         146.6699  142.2621  162.7566 H       1  UNL1        0.1453
     20 H         146.4610  142.0628  164.4372 H       1  UNL1        0.1453
     21 C         140.2544  141.5764  165.9646 C.3     1  UNL1        0.0991
     22 C         140.1296  141.6744  167.4562 C.ar    1  UNL1       -0.0061
     23 C         140.6107  142.9028  168.1700 C.ar    1  UNL1       -0.0029
     24 C         140.4858  143.0008  169.6615 C.ar    1  UNL1       -0.0003
     25 C         139.8799  141.8704  170.4393 C.ar    1  UNL1       -0.0000
     26 C         139.3988  140.6419  169.7256 C.ar    1  UNL1       -0.0003
     27 C         139.5237  140.5440  168.2340 C.ar    1  UNL1       -0.0029
@<TRIPOS>BOND
     1    16    17   am
     2    17    18    2
     3    17    10    1
     4    10    11   ar
     5    11    12   ar
     6    12    13   ar
     7    13    14   ar
     8    14     9    1
     9     1     9    1
    10     1     2    1
    11     3     2    1
    12     3     4    1
    13     4     5    1
    14     6     5    1
    15     6     7    1
    16     6     8    1
    17     8    21    1
    18    21    22    1
    19    22    23   ar
    20    23    24   ar
    21    24    25   ar
    22    25    26   ar
    23    26    27   ar
    24    14    15   ar
    25    15    10   ar
    26     7     1    1
    27    27    22   ar
    28     8     3    1
    29    16    19    1
    30    16    20    1
@<TRIPOS>MOLECULE
*****
 27 30 0 0 0
SMALL
GASTEIGER

@<TRIPOS>ATOM
      1 C         140.9446  140.8562  167.4387 C.3     1  UNL1        0.1702
      2 C         140.3300  141.5645  168.6094 C.3     1  UNL1        0.0596
      3 C         140.8981  141.3731  169.9844 C.3     1  UNL1        0.0614
      4 C         141.7590  140.9041  171.1197 C.3     1  UNL1        0.0175
      5 C         142.7967  139.9757  170.5617 C.3     1  UNL1        0.0175
      6 C         142.5771  139.8709  169.0816 C.3     1  UNL1        0.0614
      7 C         142.1273  139.9564  167.6430 C.3     1  UNL1        0.0596
      8 N         141.4037  140.7345  168.7248 N.3     1  UNL1       -0.2713
      9 O         140.3766  141.0476  166.0636 O.3     1  UNL1       -0.4639
     10 C         142.1961  143.8309  163.8975 C.ar    1  UNL1        0.1373
     11 C         141.1284  144.8824  163.8324 C.ar    1  UNL1        0.0240
     12 C         139.8101  144.6557  164.5111 C.ar    1  UNL1        0.0065
     13 C         139.5595  143.3774  165.2548 C.ar    1  UNL1        0.0577
     14 C         140.6272  142.3259  165.3199 C.ar    1  UNL1        0.2248
     15 N         141.9455  142.5526  164.6412 N.ar    1  UNL1       -0.2071
     16 N         143.8868  145.4307  162.7433 N.am    1  UNL1       -0.3241
     17 C         143.5144  144.0576  163.2188 C.2     1  UNL1        0.2606
     18 O         144.4603  142.9113  163.0155 O.2     1  UNL1       -0.2687
     19 H         144.7521  145.5795  162.2978 H       1  UNL1        0.1453
     20 H         143.2660  146.1830  162.8767 H       1  UNL1        0.1453
     21 C         140.8356  140.9259  167.3498 C.3     1  UNL1        0.0991
     22 C         140.1209  139.7961  166.6696 C.ar    1  UNL1       -0.0061
     23 C         138.7238  139.4367  167.0806 C.ar    1  UNL1       -0.0029
     24 C         138.0091  138.3069  166.4004 C.ar    1  UNL1       -0.0003
     25 C         138.6914  137.5365  165.3092 C.ar    1  UNL1       -0.0000
     26 C         140.0886  137.8959  164.8981 C.ar    1  UNL1       -0.0003
     27 C         140.8032  139.0257  165.5784 C.ar    1  UNL1       -0.0029
@<TRIPOS>BOND
     1    16    17   am
     2    17    18    2
     3    17    10    1
     4    10    11   ar
     5    11    12   ar
     6    12    13   ar
     7    13    14   ar
     8    14     9    1
     9     1     9    1
    10     1     2    1
    11     3     2    1
    12     3     4    1
    13     4     5    1
    14     6     5    1
    15     6     7    1
    16     6     8    1
    17     8    21    1
    18    21    22    1
    19    22    23   ar
    20    23    24   ar
    21    24    25   ar
    22    25    26   ar
    23    26    27   ar
    24    14    15   ar
    25    15    10   ar
    26     7     1    1
    27    27    22   ar
    28     8     3    1
    29    16    19    1
    30    16    20    1
@<TRIPOS>MOLECULE
*****
 27 30 0 0 0
SMALL
GASTEIGER

@<TRIPOS>ATOM
      1 C         142.4727  141.7021  165.8102 C.3     1  UNL1        0.1702
      2 C         143.4294  142.7721  165.3747 C.3     1  UNL1        0.0596
      3 C         144.6639  142.4064  164.6050 C.3     1  UNL1        0.0614
      4 C         145.7168  141.6117  163.8911 C.3     1  UNL1        0.0175
      5 C         145.3248  140.1650  163.9497 C.3     1  UNL1        0.0175
      6 C         144.0296  140.0656  164.6998 C.3     1  UNL1        0.0614
      7 C         142.7505  140.2663  165.4761 C.3     1  UNL1        0.0596
      8 N         143.6212  141.4510  165.1048 N.3     1  UNL1       -0.2713
      9 O         141.2382  142.0677  166.5799 O.3     1  UNL1       -0.4639
     10 C         138.3124  142.8797  164.0245 C.ar    1  UNL1        0.1373
     11 C         137.8613  144.2193  164.5264 C.ar    1  UNL1        0.0240
     12 C         138.5359  144.8417  165.7128 C.ar    1  UNL1        0.0065
     13 C         139.6615  144.1245  166.3972 C.ar    1  UNL1        0.0577
     14 C         140.1126  142.7849  165.8954 C.ar    1  UNL1        0.2248
     15 N         139.4380  142.1624  164.7090 N.ar    1  UNL1       -0.2071
     16 N         136.9738  140.9186  162.9697 N.am    1  UNL1       -0.3241
     17 C         137.6378  142.2572  162.8381 C.2     1  UNL1        0.2606
     18 O         137.6272  142.9735  161.5201 O.2     1  UNL1       -0.2687
     19 H         136.5311  140.5101  162.1910 H       1  UNL1        0.1453
     20 H         136.9808  140.4486  163.8347 H       1  UNL1        0.1453
     21 C         142.3867  141.8166  165.8744 C.3     1  UNL1        0.0991
     22 C         142.2725  141.4538  167.3254 C.ar    1  UNL1       -0.0061
     23 C         141.4288  140.2858  167.7423 C.ar    1  UNL1       -0.0029
     24 C         141.3146  139.9230  169.1932 C.ar    1  UNL1       -0.0003
     25 C         142.0441  140.7282  170.2273 C.ar    1  UNL1       -0.0000
     26 C         142.8879  141.8963  169.8105 C.ar    1  UNL1       -0.0003
     27 C         143.0021  142.2590  168.3594 C.ar    1  UNL1       -0.0029
@<TRIPOS>BOND
     1    16    17   am
     2    17    18    2
     3    17    10    1
     4    10    11   ar
     5    11    12   ar
     6    12    13   ar
     7    13    14   ar
     8    14     9    1
     9     1     9    1
    10     1     2    1
    11     3     2    1
    12     3     4    1
    13     4     5    1
    14     6     5    1
    15     6     7    1
    16     6     8    1
    17     8    21    1
    18    21    22    1
    19    22    23   ar
    20    23    24   ar
    21    24    25   ar
    22    25    26   ar
    23    26    27   ar
    24    14    15   ar
    25    15    10   ar
    26     7     1    1
    27    27    22   ar
    28     8     3    1
    29    16    19    1
    30    16    20    1
@<TRIPOS>MOLECULE
*****
 27 30 0 0 0
SMALL
GASTEIGER

@<TRIPOS>ATOM
      1 C         142.1975  141.3792  166.7227 C.3     1  UNL1        0.1702
      2 C         141.6034  140.0526  167.0927 C.3     1  UNL1        0.0596
      3 C         141.7874  139.5088  168.4785 C.3     1  UNL1        0.0614
      4 C         142.2071  139.3679  169.9117 C.3     1  UNL1        0.0175
      5 C         142.9993  140.5858  170.2845 C.3     1  UNL1        0.0175
      6 C         143.0692  141.4794  169.0817 C.3     1  UNL1        0.0614
      7 C         142.9756  142.1621  167.7385 C.3     1  UNL1        0.0596
      8 N         142.3202  140.8138  167.9656 N.3     1  UNL1       -0.2713
      9 O         142.0136  141.9231  165.3369 O.3     1  UNL1       -0.4639
     10 C         138.6253  142.5869  163.3803 C.ar    1  UNL1        0.1373
     11 C         138.0819  143.7582  164.1436 C.ar    1  UNL1        0.0240
     12 C         138.8491  144.3178  165.3047 C.ar    1  UNL1        0.0065
     13 C         140.1596  143.7062  165.7024 C.ar    1  UNL1        0.0577
     14 C         140.7030  142.5348  164.9391 C.ar    1  UNL1        0.2248
     15 N         139.9358  141.9752  163.7780 N.ar    1  UNL1       -0.2071
     16 N         137.2660  140.6517  162.3044 N.am    1  UNL1       -0.3241
     17 C         137.8580  142.0273  162.2191 C.2     1  UNL1        0.2606
     18 O         137.6829  142.8432  160.9727 O.2     1  UNL1       -0.2687
     19 H         136.7624  140.2844  161.5423 H       1  UNL1        0.1453
     20 H         137.3809  140.1161  163.1225 H       1  UNL1        0.1453
     21 C         142.1362  141.3576  166.5798 C.3     1  UNL1        0.0991
     22 C         143.2968  141.3996  165.6304 C.ar    1  UNL1       -0.0061
     23 C         143.9830  142.7018  165.3419 C.ar    1  UNL1       -0.0029
     24 C         145.1435  142.7439  164.3926 C.ar    1  UNL1       -0.0003
     25 C         145.6178  141.4837  163.7316 C.ar    1  UNL1       -0.0000
     26 C         144.9315  140.1813  164.0200 C.ar    1  UNL1       -0.0003
     27 C         143.7710  140.1394  164.9695 C.ar    1  UNL1       -0.0029
@<TRIPOS>BOND
     1    16    17   am
     2    17    18    2
     3    17    10    1
     4    10    11   ar
     5    11    12   ar
     6    12    13   ar
     7    13    14   ar
     8    14     9    1
     9     1     9    1
    10     1     2    1
    11     3     2    1
    12     3     4    1
    13     4     5    1
    14     6     5    1
    15     6     7    1
    16     6     8    1
    17     8    21    1
    18    21    22    1
    19    22    23   ar
    20    23    24   ar
    21    24    25   ar
    22    25    26   ar
    23    26    27   ar
    24    14    15   ar
    25    15    10   ar
    26     7     1    1
    27    27    22   ar
    28     8     3    1
    29    16    19    1
    30    16    20    1
