@<TRIPOS>MOLECULE
*****
 30 35 0 0 0
SMALL
GASTEIGER

@<TRIPOS>ATOM
      1 O         143.0053  138.8089  168.6054 O.2     1  UNL1       -0.2749
      2 C         142.0423  139.9562  168.5256 C.2     1  UNL1        0.2254
      3 N         141.9242  140.7495  167.2580 N.am    1  UNL1       -0.2746
      4 C         140.9612  141.8968  167.1782 C.3     1  UNL1        0.0984
      5 C         140.8431  142.6901  165.9107 C.3     1  UNL1        0.0482
      6 C         141.6879  142.3361  164.7228 C.ar    1  UNL1       -0.0119
      7 C         142.6510  141.1887  164.8026 C.ar    1  UNL1        0.0248
      8 S         143.3476  141.0754  163.4791 S.2     1  UNL1       -0.0725
      9 C         142.8151  142.1527  162.5812 C.ar    1  UNL1        0.0965
     10 C         141.7894  142.9318  163.3500 C.ar    1  UNL1        0.0545
     11 C         141.0804  144.0831  162.7005 C.ar    1  UNL1        0.1717
     12 N         140.0300  145.0280  163.2042 N.ar    1  UNL1       -0.2032
     13 C         139.6975  145.9842  162.0974 C.ar    1  UNL1        0.2214
     14 N         140.5423  145.6302  160.9095 N.ar    1  UNL1       -0.1372
     15 N         141.3970  144.4552  161.2823 N.ar    1  UNL1       -0.1606
     16 C         142.4227  143.6761  160.5136 C.ar    1  UNL1        0.3532
     17 O         142.7394  144.0482  159.0954 O.2     1  UNL1       -0.2443
     18 N         143.1317  142.5248  161.1631 N.ar    1  UNL1       -0.2702
     19 C         142.7691  140.3955  166.0703 C.3     1  UNL1        0.1263
     20 C         141.1975  140.3103  169.7133 C.3     1  UNL1        0.0767
     21 C         141.0677  140.9053  171.0843 C.3     1  UNL1        0.0096
     22 C         139.8639  140.3285  170.3999 C.3     1  UNL1        0.0096
     23 C         144.1575  141.7457  160.3943 C.3     1  UNL1        0.1378
     24 C         143.7308  140.6081  159.5148 C.ar    1  UNL1        0.0006
     25 C         143.1983  139.3461  160.1262 C.ar    1  UNL1       -0.0015
     26 C         142.7716  138.2084  159.2466 C.ar    1  UNL1        0.0111
     27 C         142.8774  138.3327  157.7555 C.ar    1  UNL1        0.0577
     28 CL        142.4508  137.1951  156.8759 Cl      1  UNL1       -0.0822
     29 C         143.4099  139.5946  157.1440 C.ar    1  UNL1        0.0111
     30 C         143.8366  140.7323  158.0237 C.ar    1  UNL1       -0.0015
@<TRIPOS>BOND
     1     1     2    2
     2     2    20    1
     3    20    21    1
     4    21    22    1
     5     2     3   am
     6     3     4    1
     7     4     5    1
     8     5     6    1
     9     6     7   ar
    10     7     8   ar
    11     8     9   ar
    12     9    10   ar
    13    10    11   ar
    14    11    12   ar
    15    12    13   ar
    16    13    14   ar
    17    14    15   ar
    18    15    16   ar
    19    16    17    2
    20    16    18   ar
    21    18    23    1
    22    23    24    1
    23    24    25   ar
    24    25    26   ar
    25    26    27   ar
    26    27    28    1
    27    27    29   ar
    28    29    30   ar
    29     7    19    1
    30    22    20    1
    31    19     3    1
    32    10     6   ar
    33    15    11   ar
    34    30    24   ar
    35    18     9   ar
@<TRIPOS>MOLECULE
*****
 30 35 0 0 0
SMALL
GASTEIGER

@<TRIPOS>ATOM
      1 O         137.9261  144.1166  155.4106 O.2     1  UNL1       -0.2749
      2 C         138.9204  145.0303  156.0640 C.2     1  UNL1        0.2254
      3 N         139.6110  144.6071  157.3266 N.am    1  UNL1       -0.2746
      4 C         140.6052  145.5207  157.9799 C.3     1  UNL1        0.0984
      5 C         141.2959  145.0976  159.2425 C.3     1  UNL1        0.0482
      6 C         140.9924  143.7609  159.8516 C.ar    1  UNL1       -0.0119
      7 C         139.9981  142.8472  159.1982 C.ar    1  UNL1        0.0248
      8 S         139.9035  141.5986  160.0239 S.2     1  UNL1       -0.0725
      9 C         140.8393  141.7405  161.1878 C.ar    1  UNL1        0.0965
     10 C         141.5122  143.0769  161.0812 C.ar    1  UNL1        0.0545
     11 C         142.5113  143.4982  162.1176 C.ar    1  UNL1        0.1717
     12 N         143.3286  144.7461  162.2750 N.ar    1  UNL1       -0.2032
     13 C         144.1600  144.6023  163.5152 C.ar    1  UNL1        0.2214
     14 N         143.8565  143.2656  164.1243 N.ar    1  UNL1       -0.1372
     15 N         142.8375  142.5832  163.2606 N.ar    1  UNL1       -0.1606
     16 C         142.1646  141.2468  163.3671 C.ar    1  UNL1        0.3532
     17 O         142.4908  140.3318  164.5100 O.2     1  UNL1       -0.2443
     18 N         141.1655  140.8255  162.3307 N.ar    1  UNL1       -0.2702
     19 C         139.3075  143.2704  157.9356 C.3     1  UNL1        0.1263
     20 C         139.2238  146.3669  155.4549 C.3     1  UNL1        0.0767
     21 C         140.0218  147.2110  154.5057 C.3     1  UNL1        0.0096
     22 C         138.9516  147.8382  155.3491 C.3     1  UNL1        0.0096
     23 C         140.4925  139.4891  162.4373 C.3     1  UNL1        0.1378
     24 C         139.6905  139.1486  163.6582 C.ar    1  UNL1        0.0006
     25 C         138.9064  140.2160  164.3624 C.ar    1  UNL1       -0.0015
     26 C         138.1044  139.8755  165.5834 C.ar    1  UNL1        0.0111
     27 C         138.0865  138.4674  166.1002 C.ar    1  UNL1        0.0577
     28 CL        137.2845  138.1269  167.3212 Cl      1  UNL1       -0.0822
     29 C         138.8705  137.4000  165.3961 C.ar    1  UNL1        0.0111
     30 C         139.6725  137.7406  164.1751 C.ar    1  UNL1       -0.0015
@<TRIPOS>BOND
     1     1     2    2
     2     2    20    1
     3    20    21    1
     4    21    22    1
     5     2     3   am
     6     3     4    1
     7     4     5    1
     8     5     6    1
     9     6     7   ar
    10     7     8   ar
    11     8     9   ar
    12     9    10   ar
    13    10    11   ar
    14    11    12   ar
    15    12    13   ar
    16    13    14   ar
    17    14    15   ar
    18    15    16   ar
    19    16    17    2
    20    16    18   ar
    21    18    23    1
    22    23    24    1
    23    24    25   ar
    24    25    26   ar
    25    26    27   ar
    26    27    28    1
    27    27    29   ar
    28    29    30   ar
    29     7    19    1
    30    22    20    1
    31    19     3    1
    32    10     6   ar
    33    15    11   ar
    34    30    24   ar
    35    18     9   ar
@<TRIPOS>MOLECULE
*****
 30 35 0 0 0
SMALL
GASTEIGER

@<TRIPOS>ATOM
      1 O         136.9881  140.2613  156.8405 O.2     1  UNL1       -0.2749
      2 C         137.7581  141.5426  156.9663 C.2     1  UNL1        0.2254
      3 N         138.7116  141.7355  158.1081 N.am    1  UNL1       -0.2746
      4 C         139.4815  143.0167  158.2339 C.3     1  UNL1        0.0984
      5 C         140.4349  143.2098  159.3757 C.3     1  UNL1        0.0482
      6 C         140.6185  142.1216  160.3916 C.ar    1  UNL1       -0.0119
      7 C         139.8486  140.8404  160.2659 C.ar    1  UNL1        0.0248
      8 S         140.2350  139.9530  161.4117 S.2     1  UNL1       -0.0725
      9 C         141.2438  140.6857  162.2458 C.ar    1  UNL1        0.0965
     10 C         141.4807  142.0260  161.6153 C.ar    1  UNL1        0.0545
     11 C         142.4511  142.9862  162.2369 C.ar    1  UNL1        0.1717
     12 N         142.8874  144.3668  161.8451 N.ar    1  UNL1       -0.2032
     13 C         143.8904  144.8400  162.8551 C.ar    1  UNL1        0.2214
     14 N         144.0740  143.7518  163.8711 N.ar    1  UNL1       -0.1372
     15 N         143.1844  142.6061  163.4890 N.ar    1  UNL1       -0.1606
     16 C         142.9474  141.2658  164.1195 C.ar    1  UNL1        0.3532
     17 O         143.6807  140.8858  165.3716 O.2     1  UNL1       -0.2443
     18 N         141.9771  140.3057  163.4979 N.ar    1  UNL1       -0.2702
     19 C         138.8951  140.6474  159.1240 C.3     1  UNL1        0.1263
     20 C         137.5745  142.6307  155.9504 C.3     1  UNL1        0.0767
     21 C         137.8612  143.2032  154.5938 C.3     1  UNL1        0.0096
     22 C         136.9700  143.9429  155.5471 C.3     1  UNL1        0.0096
     23 C         141.7401  138.9654  164.1284 C.3     1  UNL1        0.1378
     24 C         140.5313  138.7445  164.9886 C.ar    1  UNL1        0.0006
     25 C         140.1923  139.7250  166.0720 C.ar    1  UNL1       -0.0015
     26 C         138.9835  139.5042  166.9322 C.ar    1  UNL1        0.0111
     27 C         138.1136  138.3026  166.7091 C.ar    1  UNL1        0.0577
     28 CL        136.9048  138.0817  167.5693 Cl      1  UNL1       -0.0822
     29 C         138.4526  137.3221  165.6258 C.ar    1  UNL1        0.0111
     30 C         139.6614  137.5430  164.7656 C.ar    1  UNL1       -0.0015
@<TRIPOS>BOND
     1     1     2    2
     2     2    20    1
     3    20    21    1
     4    21    22    1
     5     2     3   am
     6     3     4    1
     7     4     5    1
     8     5     6    1
     9     6     7   ar
    10     7     8   ar
    11     8     9   ar
    12     9    10   ar
    13    10    11   ar
    14    11    12   ar
    15    12    13   ar
    16    13    14   ar
    17    14    15   ar
    18    15    16   ar
    19    16    17    2
    20    16    18   ar
    21    18    23    1
    22    23    24    1
    23    24    25   ar
    24    25    26   ar
    25    26    27   ar
    26    27    28    1
    27    27    29   ar
    28    29    30   ar
    29     7    19    1
    30    22    20    1
    31    19     3    1
    32    10     6   ar
    33    15    11   ar
    34    30    24   ar
    35    18     9   ar
@<TRIPOS>MOLECULE
*****
 30 35 0 0 0
SMALL
GASTEIGER

@<TRIPOS>ATOM
      1 O         142.5659  146.2596  157.9653 O.2     1  UNL1       -0.2749
      2 C         142.1561  144.8662  157.5903 C.2     1  UNL1        0.2254
      3 N         141.6034  143.9406  158.6334 N.am    1  UNL1       -0.2746
      4 C         141.1935  142.5473  158.2585 C.3     1  UNL1        0.0984
      5 C         140.6409  141.6218  159.3015 C.3     1  UNL1        0.0482
      6 C         140.4981  142.0896  160.7195 C.ar    1  UNL1       -0.0119
      7 C         140.9080  143.4830  161.0945 C.ar    1  UNL1        0.0248
      8 S         140.6528  143.6622  162.5617 S.2     1  UNL1       -0.0725
      9 C         140.0851  142.3796  163.0936 C.ar    1  UNL1        0.0965
     10 C         139.9896  141.4077  161.9550 C.ar    1  UNL1        0.0545
     11 C         139.4518  140.0273  162.1904 C.ar    1  UNL1        0.1717
     12 N         139.2407  138.8619  161.2699 N.ar    1  UNL1       -0.2032
     13 C         138.6680  137.7333  162.0750 C.ar    1  UNL1        0.2214
     14 N         138.5253  138.2010  163.4930 N.ar    1  UNL1       -0.1372
     15 N         139.0097  139.6189  163.5643 N.ar    1  UNL1       -0.1606
     16 C         139.1052  140.5908  164.7028 C.ar    1  UNL1        0.3532
     17 O         138.6631  140.1824  166.0768 O.2     1  UNL1       -0.2443
     18 N         139.6430  141.9711  164.4674 N.ar    1  UNL1       -0.2702
     19 C         141.4606  144.4085  160.0514 C.3     1  UNL1        0.1263
     20 C         142.2988  144.3984  156.1724 C.3     1  UNL1        0.0767
     21 C         143.1179  143.7548  155.0930 C.3     1  UNL1        0.0096
     22 C         141.7271  144.2316  154.7957 C.3     1  UNL1        0.0096
     23 C         139.7386  142.9431  165.6060 C.3     1  UNL1        0.1378
     24 C         140.7943  142.7658  166.6567 C.ar    1  UNL1        0.0006
     25 C         140.4431  142.9213  168.1068 C.ar    1  UNL1       -0.0015
     26 C         141.4988  142.7440  169.1574 C.ar    1  UNL1        0.0111
     27 C         142.9059  142.4112  168.7581 C.ar    1  UNL1        0.0577
     28 CL        143.9616  142.2339  169.8088 Cl      1  UNL1       -0.0822
     29 C         143.2572  142.2556  167.3082 C.ar    1  UNL1        0.0111
     30 C         142.2013  142.4329  166.2575 C.ar    1  UNL1       -0.0015
@<TRIPOS>BOND
     1     1     2    2
     2     2    20    1
     3    20    21    1
     4    21    22    1
     5     2     3   am
     6     3     4    1
     7     4     5    1
     8     5     6    1
     9     6     7   ar
    10     7     8   ar
    11     8     9   ar
    12     9    10   ar
    13    10    11   ar
    14    11    12   ar
    15    12    13   ar
    16    13    14   ar
    17    14    15   ar
    18    15    16   ar
    19    16    17    2
    20    16    18   ar
    21    18    23    1
    22    23    24    1
    23    24    25   ar
    24    25    26   ar
    25    26    27   ar
    26    27    28    1
    27    27    29   ar
    28    29    30   ar
    29     7    19    1
    30    22    20    1
    31    19     3    1
    32    10     6   ar
    33    15    11   ar
    34    30    24   ar
    35    18     9   ar
@<TRIPOS>MOLECULE
*****
 30 35 0 0 0
SMALL
GASTEIGER

@<TRIPOS>ATOM
      1 O         142.6586  136.3849  157.7552 O.2     1  UNL1       -0.2749
      2 C         142.9147  137.8462  157.5335 C.2     1  UNL1        0.2254
      3 N         143.0493  138.7706  158.7072 N.am    1  UNL1       -0.2746
      4 C         143.3054  140.2318  158.4854 C.3     1  UNL1        0.0984
      5 C         143.4401  141.1562  159.6590 C.3     1  UNL1        0.0482
      6 C         143.3186  140.6193  161.0544 C.ar    1  UNL1       -0.0119
      7 C         143.0625  139.1580  161.2762 C.ar    1  UNL1        0.0248
      8 S         142.9906  138.9192  162.7552 S.2     1  UNL1       -0.0725
      9 C         143.2023  140.2329  163.4477 C.ar    1  UNL1        0.0965
     10 C         143.4050  141.2836  162.3965 C.ar    1  UNL1        0.0545
     11 C         143.6420  142.7095  162.7972 C.ar    1  UNL1        0.1717
     12 N         143.8729  143.9534  161.9914 N.ar    1  UNL1       -0.2032
     13 C         144.0499  145.0974  162.9453 C.ar    1  UNL1        0.2214
     14 N         143.9285  144.5606  164.3406 N.ar    1  UNL1       -0.1372
     15 N         143.6764  143.0847  164.2491 N.ar    1  UNL1       -0.1606
     16 C         143.4737  142.0340  165.3003 C.ar    1  UNL1        0.3532
     17 O         143.5080  142.4092  166.7522 O.2     1  UNL1       -0.2443
     18 N         143.2366  140.6081  164.8995 N.ar    1  UNL1       -0.2702
     19 C         142.9279  138.2336  160.1024 C.3     1  UNL1        0.1263
     20 C         143.0361  138.3831  156.1382 C.3     1  UNL1        0.0767
     21 C         143.8630  138.6445  154.9142 C.3     1  UNL1        0.0096
     22 C         142.4196  139.0516  154.9453 C.3     1  UNL1        0.0096
     23 C         143.0340  139.5574  165.9508 C.3     1  UNL1        0.1378
     24 C         141.9435  139.7155  166.9686 C.ar    1  UNL1        0.0006
     25 C         142.2718  139.6771  168.4318 C.ar    1  UNL1       -0.0015
     26 C         141.1814  139.8352  169.4496 C.ar    1  UNL1        0.0111
     27 C         139.7625  140.0317  169.0042 C.ar    1  UNL1        0.0577
     28 CL        138.6721  140.1897  170.0220 Cl      1  UNL1       -0.0822
     29 C         139.4342  140.0701  167.5411 C.ar    1  UNL1        0.0111
     30 C         140.5247  139.9120  166.5233 C.ar    1  UNL1       -0.0015
@<TRIPOS>BOND
     1     1     2    2
     2     2    20    1
     3    20    21    1
     4    21    22    1
     5     2     3   am
     6     3     4    1
     7     4     5    1
     8     5     6    1
     9     6     7   ar
    10     7     8   ar
    11     8     9   ar
    12     9    10   ar
    13    10    11   ar
    14    11    12   ar
    15    12    13   ar
    16    13    14   ar
    17    14    15   ar
    18    15    16   ar
    19    16    17    2
    20    16    18   ar
    21    18    23    1
    22    23    24    1
    23    24    25   ar
    24    25    26   ar
    25    26    27   ar
    26    27    28    1
    27    27    29   ar
    28    29    30   ar
    29     7    19    1
    30    22    20    1
    31    19     3    1
    32    10     6   ar
    33    15    11   ar
    34    30    24   ar
    35    18     9   ar
@<TRIPOS>MOLECULE
*****
 30 35 0 0 0
SMALL
GASTEIGER

@<TRIPOS>ATOM
      1 O         142.6159  146.3590  158.0392 O.2     1  UNL1       -0.2749
      2 C         141.3503  145.5865  157.8119 C.2     1  UNL1        0.2254
      3 N         141.0455  144.3822  158.6528 N.am    1  UNL1       -0.2746
      4 C         139.7799  143.6098  158.4255 C.3     1  UNL1        0.0984
      5 C         139.4750  142.4056  159.2663 C.3     1  UNL1        0.0482
      6 C         140.4357  141.9738  160.3344 C.ar    1  UNL1       -0.0119
      7 C         141.7013  142.7463  160.5616 C.ar    1  UNL1        0.0248
      8 S         142.4525  142.0868  161.6799 S.2     1  UNL1       -0.0725
      9 C         141.6511  140.9066  162.1439 C.ar    1  UNL1        0.0965
     10 C         140.4047  140.8369  161.3123 C.ar    1  UNL1        0.0545
     11 C         139.4026  139.7470  161.5530 C.ar    1  UNL1        0.1717
     12 N         138.0924  139.4255  160.8971 N.ar    1  UNL1       -0.2032
     13 C         137.5270  138.2067  161.5641 C.ar    1  UNL1        0.2214
     14 N         138.4877  137.7750  162.6321 N.ar    1  UNL1       -0.1372
     15 N         139.6469  138.7269  162.6252 N.ar    1  UNL1       -0.1606
     16 C         140.8933  138.7967  163.4568 C.ar    1  UNL1        0.3532
     17 O         141.1376  137.7767  164.5291 O.2     1  UNL1       -0.2443
     18 N         141.8954  139.8866  163.2161 N.ar    1  UNL1       -0.2702
     19 C         142.0062  143.9506  159.7208 C.3     1  UNL1        0.1263
     20 C         140.3897  146.0182  156.7440 C.3     1  UNL1        0.0767
     21 C         139.2620  146.8965  156.2888 C.3     1  UNL1        0.0096
     22 C         139.8533  145.8877  155.3492 C.3     1  UNL1        0.0096
     23 C         143.1418  139.9563  164.0478 C.3     1  UNL1        0.1378
     24 C         143.1084  140.6144  165.3953 C.ar    1  UNL1        0.0006
     25 C         143.4831  142.0603  165.5335 C.ar    1  UNL1       -0.0015
     26 C         143.4496  142.7184  166.8810 C.ar    1  UNL1        0.0111
     27 C         143.0415  141.9304  168.0905 C.ar    1  UNL1        0.0577
     28 CL        143.0081  142.5885  169.4380 Cl      1  UNL1       -0.0822
     29 C         142.6669  140.4846  167.9524 C.ar    1  UNL1        0.0111
     30 C         142.7003  139.8266  166.6048 C.ar    1  UNL1       -0.0015
@<TRIPOS>BOND
     1     1     2    2
     2     2    20    1
     3    20    21    1
     4    21    22    1
     5     2     3   am
     6     3     4    1
     7     4     5    1
     8     5     6    1
     9     6     7   ar
    10     7     8   ar
    11     8     9   ar
    12     9    10   ar
    13    10    11   ar
    14    11    12   ar
    15    12    13   ar
    16    13    14   ar
    17    14    15   ar
    18    15    16   ar
    19    16    17    2
    20    16    18   ar
    21    18    23    1
    22    23    24    1
    23    24    25   ar
    24    25    26   ar
    25    26    27   ar
    26    27    28    1
    27    27    29   ar
    28    29    30   ar
    29     7    19    1
    30    22    20    1
    31    19     3    1
    32    10     6   ar
    33    15    11   ar
    34    30    24   ar
    35    18     9   ar
@<TRIPOS>MOLECULE
*****
 30 35 0 0 0
SMALL
GASTEIGER

@<TRIPOS>ATOM
      1 O         146.2283  142.2050  157.4895 O.2     1  UNL1       -0.2749
      2 C         144.7665  142.4735  157.2862 C.2     1  UNL1        0.2254
      3 N         143.8643  142.6492  158.4716 N.am    1  UNL1       -0.2746
      4 C         142.4026  142.9177  158.2683 C.3     1  UNL1        0.0984
      5 C         141.5004  143.0934  159.4536 C.3     1  UNL1        0.0482
      6 C         142.0598  143.0006  160.8423 C.ar    1  UNL1       -0.0119
      7 C         143.5216  142.7321  161.0456 C.ar    1  UNL1        0.0248
      8 S         143.7851  142.6947  162.5218 S.2     1  UNL1       -0.0725
      9 C         142.4861  142.9400  163.2309 C.ar    1  UNL1        0.0965
     10 C         141.4199  143.1291  162.1928 C.ar    1  UNL1        0.0545
     11 C         140.0041  143.3939  162.6116 C.ar    1  UNL1        0.1717
     12 N         138.7493  143.6197  161.8214 N.ar    1  UNL1       -0.2032
     13 C         137.6242  143.8350  162.7898 C.ar    1  UNL1        0.2214
     14 N         138.1836  143.7422  164.1785 N.ar    1  UNL1       -0.1372
     15 N         139.6545  143.4696  164.0683 N.ar    1  UNL1       -0.1606
     16 C         140.7207  143.2805  165.1063 C.ar    1  UNL1        0.3532
     17 O         140.3711  143.3561  166.5631 O.2     1  UNL1       -0.2443
     18 N         142.1365  143.0157  164.6876 N.ar    1  UNL1       -0.2702
     19 C         144.4238  142.5564  159.8602 C.3     1  UNL1        0.1263
     20 C         144.2071  142.5663  155.8976 C.3     1  UNL1        0.0767
     21 C         143.5509  143.3673  154.8122 C.3     1  UNL1        0.0096
     22 C         143.8942  141.9261  154.5777 C.3     1  UNL1        0.0096
     23 C         143.2028  142.8266  165.7256 C.3     1  UNL1        0.1378
     24 C         143.0320  141.7895  166.7957 C.ar    1  UNL1        0.0006
     25 C         143.1383  142.1780  168.2407 C.ar    1  UNL1       -0.0015
     26 C         142.9675  141.1408  169.3108 C.ar    1  UNL1        0.0111
     27 C         142.6905  139.7150  168.9359 C.ar    1  UNL1        0.0577
     28 CL        142.5197  138.6779  170.0060 Cl      1  UNL1       -0.0822
     29 C         142.5842  139.3265  167.4911 C.ar    1  UNL1        0.0111
     30 C         142.7550  140.3637  166.4209 C.ar    1  UNL1       -0.0015
@<TRIPOS>BOND
     1     1     2    2
     2     2    20    1
     3    20    21    1
     4    21    22    1
     5     2     3   am
     6     3     4    1
     7     4     5    1
     8     5     6    1
     9     6     7   ar
    10     7     8   ar
    11     8     9   ar
    12     9    10   ar
    13    10    11   ar
    14    11    12   ar
    15    12    13   ar
    16    13    14   ar
    17    14    15   ar
    18    15    16   ar
    19    16    17    2
    20    16    18   ar
    21    18    23    1
    22    23    24    1
    23    24    25   ar
    24    25    26   ar
    25    26    27   ar
    26    27    28    1
    27    27    29   ar
    28    29    30   ar
    29     7    19    1
    30    22    20    1
    31    19     3    1
    32    10     6   ar
    33    15    11   ar
    34    30    24   ar
    35    18     9   ar
@<TRIPOS>MOLECULE
*****
 30 35 0 0 0
SMALL
GASTEIGER

@<TRIPOS>ATOM
      1 O         138.2689  138.2477  155.6672 O.2     1  UNL1       -0.2749
      2 C         138.1232  139.7406  155.6887 C.2     1  UNL1        0.2254
      3 N         138.5248  140.5158  156.9085 N.am    1  UNL1       -0.2746
      4 C         138.3790  142.0085  156.9300 C.3     1  UNL1        0.0984
      5 C         138.7806  142.7838  158.1497 C.3     1  UNL1        0.0482
      6 C         139.3278  142.0663  159.3479 C.ar    1  UNL1       -0.0119
      7 C         139.4735  140.5735  159.3264 C.ar    1  UNL1        0.0248
      8 S         140.0395  140.1439  160.6474 S.2     1  UNL1       -0.0725
      9 C         140.2436  141.3712  161.4854 C.ar    1  UNL1        0.0965
     10 C         139.8037  142.5593  160.6822 C.ar    1  UNL1        0.0545
     11 C         139.8934  143.9365  161.2697 C.ar    1  UNL1        0.1717
     12 N         139.5375  145.2867  160.7215 N.ar    1  UNL1       -0.2032
     13 C         139.8471  146.3102  161.7734 C.ar    1  UNL1        0.2214
     14 N         140.3944  145.5928  162.9716 N.ar    1  UNL1       -0.1372
     15 N         140.4230  144.1257  162.6603 N.ar    1  UNL1       -0.1606
     16 C         140.8628  142.9376  163.4635 C.ar    1  UNL1        0.3532
     17 O         141.3924  143.1268  164.8541 O.2     1  UNL1       -0.2443
     18 N         140.7731  141.5604  162.8760 N.ar    1  UNL1       -0.2702
     19 C         139.0720  139.7982  158.1066 C.3     1  UNL1        0.1263
     20 C         137.5760  140.4580  154.4905 C.3     1  UNL1        0.0767
     21 C         136.4453  140.7284  153.5425 C.3     1  UNL1        0.0096
     22 C         137.7587  141.4304  153.3631 C.3     1  UNL1        0.0096
     23 C         141.2130  140.3723  163.6792 C.3     1  UNL1        0.1378
     24 C         140.2254  139.6417  164.5398 C.ar    1  UNL1        0.0006
     25 C         139.7369  140.2636  165.8145 C.ar    1  UNL1       -0.0015
     26 C         138.7493  139.5329  166.6751 C.ar    1  UNL1        0.0111
     27 C         138.2501  138.1803  166.2611 C.ar    1  UNL1        0.0577
     28 CL        137.2625  137.4496  167.1218 Cl      1  UNL1       -0.0822
     29 C         138.7386  137.5584  164.9866 C.ar    1  UNL1        0.0111
     30 C         139.7262  138.2891  164.1259 C.ar    1  UNL1       -0.0015
@<TRIPOS>BOND
     1     1     2    2
     2     2    20    1
     3    20    21    1
     4    21    22    1
     5     2     3   am
     6     3     4    1
     7     4     5    1
     8     5     6    1
     9     6     7   ar
    10     7     8   ar
    11     8     9   ar
    12     9    10   ar
    13    10    11   ar
    14    11    12   ar
    15    12    13   ar
    16    13    14   ar
    17    14    15   ar
    18    15    16   ar
    19    16    17    2
    20    16    18   ar
    21    18    23    1
    22    23    24    1
    23    24    25   ar
    24    25    26   ar
    25    26    27   ar
    26    27    28    1
    27    27    29   ar
    28    29    30   ar
    29     7    19    1
    30    22    20    1
    31    19     3    1
    32    10     6   ar
    33    15    11   ar
    34    30    24   ar
    35    18     9   ar
@<TRIPOS>MOLECULE
*****
 30 35 0 0 0
SMALL
GASTEIGER

@<TRIPOS>ATOM
      1 O         145.2479  131.7863  156.1527 O.2     1  UNL1       -0.2749
      2 C         144.0712  131.9562  155.2380 C.2     1  UNL1        0.2254
      3 N         143.1815  133.1560  155.3754 N.am    1  UNL1       -0.2746
      4 C         142.0048  133.3258  154.4608 C.3     1  UNL1        0.0984
      5 C         141.1151  134.5256  154.5982 C.3     1  UNL1        0.0482
      6 C         141.4019  135.5555  155.6503 C.ar    1  UNL1       -0.0119
      7 C         142.5787  135.3857  156.5650 C.ar    1  UNL1        0.0248
      8 S         142.6112  136.5574  157.5008 S.2     1  UNL1       -0.0725
      9 C         141.4547  137.4516  157.1645 C.ar    1  UNL1        0.0965
     10 C         140.7073  136.8323  156.0208 C.ar    1  UNL1        0.0545
     11 C         139.4908  137.5111  155.4646 C.ar    1  UNL1        0.1717
     12 N         138.5575  137.1426  154.3496 N.ar    1  UNL1       -0.2032
     13 C         137.5115  138.2129  154.2480 C.ar    1  UNL1        0.2214
     14 N         137.7984  139.2429  155.3001 N.ar    1  UNL1       -0.1372
     15 N         139.0217  138.8091  156.0520 N.ar    1  UNL1       -0.1606
     16 C         139.7691  139.4283  157.1957 C.ar    1  UNL1        0.3532
     17 O         139.2999  140.7263  157.7831 O.2     1  UNL1       -0.2443
     18 N         140.9855  138.7495  157.7519 N.ar    1  UNL1       -0.2702
     19 C         143.4684  134.1858  156.4276 C.3     1  UNL1        0.1263
     20 C         143.7843  130.9263  154.1859 C.3     1  UNL1        0.0767
     21 C         143.3042  129.5571  153.8050 C.3     1  UNL1        0.0096
     22 C         143.7675  130.5115  152.7445 C.3     1  UNL1        0.0096
     23 C         141.7329  139.3688  158.8956 C.3     1  UNL1        0.1378
     24 C         141.6038  138.7937  160.2750 C.ar    1  UNL1        0.0006
     25 C         140.2500  138.4445  160.8184 C.ar    1  UNL1       -0.0015
     26 C         140.1209  137.8693  162.1977 C.ar    1  UNL1        0.0111
     27 C         141.3458  137.6434  163.0337 C.ar    1  UNL1        0.0577
     28 CL        141.2168  137.0682  164.4130 Cl      1  UNL1       -0.0822
     29 C         142.6996  137.9926  162.4903 C.ar    1  UNL1        0.0111
     30 C         142.8286  138.5677  161.1109 C.ar    1  UNL1       -0.0015
@<TRIPOS>BOND
     1     1     2    2
     2     2    20    1
     3    20    21    1
     4    21    22    1
     5     2     3   am
     6     3     4    1
     7     4     5    1
     8     5     6    1
     9     6     7   ar
    10     7     8   ar
    11     8     9   ar
    12     9    10   ar
    13    10    11   ar
    14    11    12   ar
    15    12    13   ar
    16    13    14   ar
    17    14    15   ar
    18    15    16   ar
    19    16    17    2
    20    16    18   ar
    21    18    23    1
    22    23    24    1
    23    24    25   ar
    24    25    26   ar
    25    26    27   ar
    26    27    28    1
    27    27    29   ar
    28    29    30   ar
    29     7    19    1
    30    22    20    1
    31    19     3    1
    32    10     6   ar
    33    15    11   ar
    34    30    24   ar
    35    18     9   ar
