@<TRIPOS>MOLECULE
*****
 26 29 0 0 0
SMALL
GASTEIGER

@<TRIPOS>ATOM
      1 C         139.6952  140.9678  164.6922 C.3     1  UNL1        0.2542
      2 C         138.3062  141.4857  164.9211 C.3     1  UNL1        0.2573
      3 N         137.6453  141.6466  163.5841 N.pl3   1  UNL1       -0.2136
      4 C         138.6259  141.2280  162.5290 C.2     1  UNL1        0.3356
      5 N         139.8928  140.8085  163.2138 N.2     1  UNL1       -0.0599
      6 H         136.7289  141.9701  163.4268 H       1  UNL1        0.2924
      7 F         145.3324  138.9405  165.0277 F       1  UNL1       -0.2042
      8 C         143.9231  139.4473  164.9438 C.ar    1  UNL1        0.1401
      9 C         142.7744  138.5118  165.1788 C.ar    1  UNL1        0.0295
     10 C         141.3651  139.0186  165.0950 C.ar    1  UNL1        0.0025
     11 C         141.1045  140.4609  164.7761 C.ar    1  UNL1        0.0298
     12 C         142.2532  141.3965  164.5411 C.ar    1  UNL1        0.0025
     13 C         143.6625  140.8896  164.6249 C.ar    1  UNL1        0.0295
     14 C         139.7922  141.0211  166.1881 C.ar    1  UNL1        0.0298
     15 C         139.2656  139.8857  167.0148 C.ar    1  UNL1        0.0025
     16 C         139.3626  139.9390  168.5107 C.ar    1  UNL1        0.0295
     17 C         139.9863  141.1277  169.1799 C.ar    1  UNL1        0.1401
     18 F         140.0834  141.1810  170.6758 F       1  UNL1       -0.2042
     19 C         140.5130  142.2631  168.3533 C.ar    1  UNL1        0.0295
     20 C         140.4159  142.2098  166.8574 C.ar    1  UNL1        0.0025
     21 C         138.3823  141.2289  161.0489 C.ar    1  UNL1        0.1819
     22 C         137.9147  139.9784  160.3651 C.ar    1  UNL1        0.1255
     23 N         137.6711  139.9791  158.8851 N.ar    1  UNL1       -0.2389
     24 C         137.8951  141.2305  158.0887 C.ar    1  UNL1        0.1195
     25 C         138.3626  142.4809  158.7726 C.ar    1  UNL1        0.1198
     26 N         138.6063  142.4802  160.2527 N.ar    1  UNL1       -0.2333
@<TRIPOS>BOND
     1     7     8    1
     2     8     9   ar
     3     9    10   ar
     4    10    11   ar
     5    11     1    1
     6     1    14    1
     7    14    15   ar
     8    15    16   ar
     9    16    17   ar
    10    17    18    1
    11    17    19   ar
    12    19    20   ar
    13     1     2    1
    14     2     3    1
    15     3     4    1
    16     4    21    1
    17    21    22   ar
    18    22    23   ar
    19    23    24   ar
    20    24    25   ar
    21    25    26   ar
    22     4     5    2
    23    11    12   ar
    24    12    13   ar
    25    13     8   ar
    26     5     1    1
    27    20    14   ar
    28    26    21   ar
    29     3     6    1
@<TRIPOS>MOLECULE
*****
 26 29 0 0 0
SMALL
GASTEIGER

@<TRIPOS>ATOM
      1 C         142.9758  141.2152  164.4055 C.3     1  UNL1        0.2542
      2 C         144.2483  140.4312  164.5323 C.3     1  UNL1        0.2573
      3 N         144.8063  140.2274  163.1548 N.pl3   1  UNL1       -0.2136
      4 C         143.8786  140.8854  162.1769 C.2     1  UNL1        0.3356
      5 N         142.7473  141.4960  162.9498 N.2     1  UNL1       -0.0599
      6 H         145.6357  139.7462  162.9318 H       1  UNL1        0.2924
      7 F         137.8530  144.2491  165.1484 F       1  UNL1       -0.2042
      8 C         139.1337  143.4907  164.9627 C.ar    1  UNL1        0.1401
      9 C         140.3879  144.2189  164.5799 C.ar    1  UNL1        0.0295
     10 C         141.6686  143.4604  164.3942 C.ar    1  UNL1        0.0025
     11 C         141.6951  141.9737  164.5913 C.ar    1  UNL1        0.0298
     12 C         140.4409  141.2455  164.9741 C.ar    1  UNL1        0.0025
     13 C         139.1602  142.0039  165.1598 C.ar    1  UNL1        0.0295
     14 C         142.9366  141.0931  165.9000 C.ar    1  UNL1        0.0298
     15 C         143.1643  142.3025  166.7577 C.ar    1  UNL1        0.0025
     16 C         143.1250  142.1803  168.2521 C.ar    1  UNL1        0.0295
     17 C         142.8580  140.8488  168.8890 C.ar    1  UNL1        0.1401
     18 F         142.8188  140.7266  170.3835 F       1  UNL1       -0.2042
     19 C         142.6303  139.6394  168.0315 C.ar    1  UNL1        0.0295
     20 C         142.6696  139.7615  166.5370 C.ar    1  UNL1        0.0025
     21 C         144.0518  140.9258  160.6875 C.ar    1  UNL1        0.1819
     22 C         143.8241  139.6876  159.8721 C.ar    1  UNL1        0.1255
     23 N         143.9973  139.7279  158.3827 N.ar    1  UNL1       -0.2389
     24 C         144.3983  141.0065  157.7086 C.ar    1  UNL1        0.1195
     25 C         144.6260  142.2448  158.5240 C.ar    1  UNL1        0.1198
     26 N         144.4527  142.2045  160.0135 N.ar    1  UNL1       -0.2333
@<TRIPOS>BOND
     1     7     8    1
     2     8     9   ar
     3     9    10   ar
     4    10    11   ar
     5    11     1    1
     6     1    14    1
     7    14    15   ar
     8    15    16   ar
     9    16    17   ar
    10    17    18    1
    11    17    19   ar
    12    19    20   ar
    13     1     2    1
    14     2     3    1
    15     3     4    1
    16     4    21    1
    17    21    22   ar
    18    22    23   ar
    19    23    24   ar
    20    24    25   ar
    21    25    26   ar
    22     4     5    2
    23    11    12   ar
    24    12    13   ar
    25    13     8   ar
    26     5     1    1
    27    20    14   ar
    28    26    21   ar
    29     3     6    1
@<TRIPOS>MOLECULE
*****
 26 29 0 0 0
SMALL
GASTEIGER

@<TRIPOS>ATOM
      1 C         140.6395  139.7049  164.7299 C.3     1  UNL1        0.2542
      2 C         141.2167  138.3343  164.9249 C.3     1  UNL1        0.2573
      3 N         141.4216  137.7208  163.5715 N.pl3   1  UNL1       -0.2136
      4 C         140.9710  138.7123  162.5401 C.2     1  UNL1        0.3356
      5 N         140.4876  139.9386  163.2560 N.2     1  UNL1       -0.0599
      6 H         141.7876  136.8247  163.3917 H       1  UNL1        0.2924
      7 F         138.3578  145.2339  165.2032 F       1  UNL1       -0.2042
      8 C         138.9282  143.8517  165.0848 C.ar    1  UNL1        0.1401
      9 C         140.3580  143.5958  165.4592 C.ar    1  UNL1        0.0295
     10 C         140.9284  142.2135  165.3409 C.ar    1  UNL1        0.0025
     11 C         140.0691  141.0872  164.8482 C.ar    1  UNL1        0.0298
     12 C         138.6393  141.3431  164.4738 C.ar    1  UNL1        0.0025
     13 C         138.0689  142.7253  164.5921 C.ar    1  UNL1        0.0295
     14 C         140.6721  139.7602  166.2285 C.ar    1  UNL1        0.0298
     15 C         141.9838  139.6945  166.9531 C.ar    1  UNL1        0.0025
     16 C         142.0164  139.7499  168.4517 C.ar    1  UNL1        0.0295
     17 C         140.7372  139.8709  169.2257 C.ar    1  UNL1        0.1401
     18 F         140.7698  139.9262  170.7244 F       1  UNL1       -0.2042
     19 C         139.4255  139.9366  168.5012 C.ar    1  UNL1        0.0295
     20 C         139.3930  139.8813  167.0026 C.ar    1  UNL1        0.0025
     21 C         140.9989  138.5126  161.0537 C.ar    1  UNL1        0.1819
     22 C         139.7281  138.5982  160.2615 C.ar    1  UNL1        0.1255
     23 N         139.7559  138.3985  158.7751 N.ar    1  UNL1       -0.2389
     24 C         141.0547  138.1132  158.0809 C.ar    1  UNL1        0.1195
     25 C         142.3255  138.0275  158.8731 C.ar    1  UNL1        0.1198
     26 N         142.2977  138.2272  160.3595 N.ar    1  UNL1       -0.2333
@<TRIPOS>BOND
     1     7     8    1
     2     8     9   ar
     3     9    10   ar
     4    10    11   ar
     5    11     1    1
     6     1    14    1
     7    14    15   ar
     8    15    16   ar
     9    16    17   ar
    10    17    18    1
    11    17    19   ar
    12    19    20   ar
    13     1     2    1
    14     2     3    1
    15     3     4    1
    16     4    21    1
    17    21    22   ar
    18    22    23   ar
    19    23    24   ar
    20    24    25   ar
    21    25    26   ar
    22     4     5    2
    23    11    12   ar
    24    12    13   ar
    25    13     8   ar
    26     5     1    1
    27    20    14   ar
    28    26    21   ar
    29     3     6    1
@<TRIPOS>MOLECULE
*****
 26 29 0 0 0
SMALL
GASTEIGER

@<TRIPOS>ATOM
      1 C         141.0366  142.6626  164.6345 C.3     1  UNL1        0.2542
      2 C         141.7622  143.9737  164.7021 C.3     1  UNL1        0.2573
      3 N         141.7382  144.5878  163.3338 N.pl3   1  UNL1       -0.2136
      4 C         140.9978  143.6562  162.4205 C.2     1  UNL1        0.3356
      5 N         140.5643  142.4664  163.2244 N.2     1  UNL1       -0.0599
      6 H         142.1381  145.4508  163.0797 H       1  UNL1        0.2924
      7 F         138.4150  137.3500  165.5847 F       1  UNL1       -0.2042
      8 C         139.0704  138.6781  165.3472 C.ar    1  UNL1        0.1401
      9 C         138.2433  139.9292  165.3242 C.ar    1  UNL1        0.0295
     10 C         138.8987  141.2574  165.0866 C.ar    1  UNL1        0.0025
     11 C         140.3812  141.3344  164.8721 C.ar    1  UNL1        0.0298
     12 C         141.2084  140.0833  164.8951 C.ar    1  UNL1        0.0025
     13 C         140.5529  138.7552  165.1326 C.ar    1  UNL1        0.0295
     14 C         141.3720  142.5811  166.0943 C.ar    1  UNL1        0.0298
     15 C         142.7551  142.1925  166.5255 C.ar    1  UNL1        0.0025
     16 C         143.0904  142.1110  167.9852 C.ar    1  UNL1        0.0295
     17 C         142.0427  142.4182  169.0137 C.ar    1  UNL1        0.1401
     18 F         142.3781  142.3367  170.4735 F       1  UNL1       -0.2042
     19 C         140.6596  142.8068  168.5826 C.ar    1  UNL1        0.0295
     20 C         140.3243  142.8882  167.1228 C.ar    1  UNL1        0.0025
     21 C         140.7369  143.8760  160.9598 C.ar    1  UNL1        0.1819
     22 C         139.5039  143.3054  160.3241 C.ar    1  UNL1        0.1255
     23 N         139.2429  143.5251  158.8634 N.ar    1  UNL1       -0.2389
     24 C         140.2149  144.3154  158.0384 C.ar    1  UNL1        0.1195
     25 C         141.4479  144.8860  158.6742 C.ar    1  UNL1        0.1198
     26 N         141.7090  144.6663  160.1349 N.ar    1  UNL1       -0.2333
@<TRIPOS>BOND
     1     7     8    1
     2     8     9   ar
     3     9    10   ar
     4    10    11   ar
     5    11     1    1
     6     1    14    1
     7    14    15   ar
     8    15    16   ar
     9    16    17   ar
    10    17    18    1
    11    17    19   ar
    12    19    20   ar
    13     1     2    1
    14     2     3    1
    15     3     4    1
    16     4    21    1
    17    21    22   ar
    18    22    23   ar
    19    23    24   ar
    20    24    25   ar
    21    25    26   ar
    22     4     5    2
    23    11    12   ar
    24    12    13   ar
    25    13     8   ar
    26     5     1    1
    27    20    14   ar
    28    26    21   ar
    29     3     6    1
@<TRIPOS>MOLECULE
*****
 26 29 0 0 0
SMALL
GASTEIGER

@<TRIPOS>ATOM
      1 C         139.8545  140.7423  163.0539 C.3     1  UNL1        0.2542
      2 C         138.4125  141.0099  162.7396 C.3     1  UNL1        0.2573
      3 N         138.3588  142.0453  161.6555 N.pl3   1  UNL1       -0.2136
      4 C         139.7676  142.4176  161.2999 C.2     1  UNL1        0.3356
      5 N         140.6921  141.6124  162.1641 N.2     1  UNL1       -0.0599
      6 H         137.5422  142.4155  161.2488 H       1  UNL1        0.2924
      7 F         145.1541  138.8623  165.1467 F       1  UNL1       -0.2042
      8 C         143.8292  139.3323  164.6235 C.ar    1  UNL1        0.1401
      9 C         143.0084  140.3010  165.4221 C.ar    1  UNL1        0.0295
     10 C         141.6835  140.7710  164.8989 C.ar    1  UNL1        0.0025
     11 C         141.1794  140.2723  163.5771 C.ar    1  UNL1        0.0298
     12 C         142.0003  139.3037  162.7785 C.ar    1  UNL1        0.0025
     13 C         143.3252  138.8337  163.3017 C.ar    1  UNL1        0.0295
     14 C         139.2940  139.7741  164.0530 C.ar    1  UNL1        0.0298
     15 C         139.4516  138.2981  163.8371 C.ar    1  UNL1        0.0025
     16 C         138.8912  137.3299  164.8361 C.ar    1  UNL1        0.0295
     17 C         138.1730  137.8375  166.0512 C.ar    1  UNL1        0.1401
     18 F         137.6124  136.8693  167.0504 F       1  UNL1       -0.2042
     19 C         138.0153  139.3134  166.2672 C.ar    1  UNL1        0.0295
     20 C         138.5758  140.2817  165.2681 C.ar    1  UNL1        0.0025
     21 C         140.1796  143.4194  160.2622 C.ar    1  UNL1        0.1819
     22 C         141.2598  144.4144  160.5676 C.ar    1  UNL1        0.1255
     23 N         141.6718  145.4161  159.5300 N.ar    1  UNL1       -0.2389
     24 C         141.0037  145.4229  158.1869 C.ar    1  UNL1        0.1195
     25 C         139.9236  144.4279  157.8816 C.ar    1  UNL1        0.1198
     26 N         139.5115  143.4261  158.9193 N.ar    1  UNL1       -0.2333
@<TRIPOS>BOND
     1     7     8    1
     2     8     9   ar
     3     9    10   ar
     4    10    11   ar
     5    11     1    1
     6     1    14    1
     7    14    15   ar
     8    15    16   ar
     9    16    17   ar
    10    17    18    1
    11    17    19   ar
    12    19    20   ar
    13     1     2    1
    14     2     3    1
    15     3     4    1
    16     4    21    1
    17    21    22   ar
    18    22    23   ar
    19    23    24   ar
    20    24    25   ar
    21    25    26   ar
    22     4     5    2
    23    11    12   ar
    24    12    13   ar
    25    13     8   ar
    26     5     1    1
    27    20    14   ar
    28    26    21   ar
    29     3     6    1
@<TRIPOS>MOLECULE
*****
 26 29 0 0 0
SMALL
GASTEIGER

@<TRIPOS>ATOM
      1 C         141.7764  139.5253  164.3214 C.3     1  UNL1        0.2542
      2 C         141.0981  138.1976  164.4863 C.3     1  UNL1        0.2573
      3 N         140.9595  137.5761  163.1281 N.pl3   1  UNL1       -0.2136
      4 C         141.5522  138.5197  162.1239 C.2     1  UNL1        0.3356
      5 N         142.0570  139.7243  162.8614 N.2     1  UNL1       -0.0599
      6 H         140.5513  136.7023  162.9304 H       1  UNL1        0.2924
      7 F         144.3682  144.9046  164.9087 F       1  UNL1       -0.2042
      8 C         143.7202  143.5598  164.7619 C.ar    1  UNL1        0.1401
      9 C         142.2247  143.4451  164.7499 C.ar    1  UNL1        0.0295
     10 C         141.5767  142.1003  164.6031 C.ar    1  UNL1        0.0025
     11 C         142.4243  140.8701  164.4682 C.ar    1  UNL1        0.0298
     12 C         143.9198  140.9848  164.4802 C.ar    1  UNL1        0.0025
     13 C         144.5678  142.3296  164.6270 C.ar    1  UNL1        0.0295
     14 C         141.6312  139.6073  165.8121 C.ar    1  UNL1        0.0298
     15 C         142.8060  139.3140  166.6974 C.ar    1  UNL1        0.0025
     16 C         142.6608  139.3961  168.1880 C.ar    1  UNL1        0.0295
     17 C         141.3408  139.7715  168.7935 C.ar    1  UNL1        0.1401
     18 F         141.1957  139.8536  170.2842 F       1  UNL1       -0.2042
     19 C         140.1660  140.0649  167.9083 C.ar    1  UNL1        0.0295
     20 C         140.3112  139.9828  166.4176 C.ar    1  UNL1        0.0025
     21 C         141.6268  138.2976  160.6423 C.ar    1  UNL1        0.1819
     22 C         142.8929  137.7832  160.0239 C.ar    1  UNL1        0.1255
     23 N         142.9677  137.5611  158.5424 N.ar    1  UNL1       -0.2389
     24 C         141.7763  137.8533  157.6791 C.ar    1  UNL1        0.1195
     25 C         140.5102  138.3677  158.2975 C.ar    1  UNL1        0.1198
     26 N         140.4354  138.5898  159.7791 N.ar    1  UNL1       -0.2333
@<TRIPOS>BOND
     1     7     8    1
     2     8     9   ar
     3     9    10   ar
     4    10    11   ar
     5    11     1    1
     6     1    14    1
     7    14    15   ar
     8    15    16   ar
     9    16    17   ar
    10    17    18    1
    11    17    19   ar
    12    19    20   ar
    13     1     2    1
    14     2     3    1
    15     3     4    1
    16     4    21    1
    17    21    22   ar
    18    22    23   ar
    19    23    24   ar
    20    24    25   ar
    21    25    26   ar
    22     4     5    2
    23    11    12   ar
    24    12    13   ar
    25    13     8   ar
    26     5     1    1
    27    20    14   ar
    28    26    21   ar
    29     3     6    1
@<TRIPOS>MOLECULE
*****
 26 29 0 0 0
SMALL
GASTEIGER

@<TRIPOS>ATOM
      1 C         141.0831  141.5539  165.5350 C.3     1  UNL1        0.2542
      2 C         141.9746  142.7414  165.7470 C.3     1  UNL1        0.2573
      3 N         142.0427  143.5057  164.4580 N.pl3   1  UNL1       -0.2136
      4 C         141.1933  142.7905  163.4496 C.2     1  UNL1        0.3356
      5 N         140.6002  141.5842  164.1152 N.2     1  UNL1       -0.0599
      6 H         142.5550  144.3317  164.3014 H       1  UNL1        0.2924
      7 F         137.7762  136.5600  165.8903 F       1  UNL1       -0.2042
      8 C         138.6029  137.8085  165.8015 C.ar    1  UNL1        0.1401
      9 C         138.1744  139.0455  166.5337 C.ar    1  UNL1        0.0295
     10 C         139.0011  140.2939  166.4449 C.ar    1  UNL1        0.0025
     11 C         140.2564  140.3054  165.6238 C.ar    1  UNL1        0.0298
     12 C         140.6849  139.0684  164.8916 C.ar    1  UNL1        0.0025
     13 C         139.8582  137.8200  164.9804 C.ar    1  UNL1        0.0295
     14 C         141.3931  141.2625  166.9735 C.ar    1  UNL1        0.0298
     15 C         140.8251  142.1336  168.0544 C.ar    1  UNL1        0.0025
     16 C         141.1351  141.8423  169.4928 C.ar    1  UNL1        0.0295
     17 C         142.0131  140.6798  169.8502 C.ar    1  UNL1        0.1401
     18 F         142.3231  140.3885  171.2886 F       1  UNL1       -0.2042
     19 C         142.5811  139.8087  168.7693 C.ar    1  UNL1        0.0295
     20 C         142.2711  140.1001  167.3309 C.ar    1  UNL1        0.0025
     21 C         140.9754  143.2083  162.0255 C.ar    1  UNL1        0.1819
     22 C         139.5816  143.3994  161.5050 C.ar    1  UNL1        0.1255
     23 N         139.3636  143.8172  160.0810 N.ar    1  UNL1       -0.2389
     24 C         140.5393  144.0439  159.1774 C.ar    1  UNL1        0.1195
     25 C         141.9330  143.8527  159.6979 C.ar    1  UNL1        0.1198
     26 N         142.1511  143.4349  161.1220 N.ar    1  UNL1       -0.2333
@<TRIPOS>BOND
     1     7     8    1
     2     8     9   ar
     3     9    10   ar
     4    10    11   ar
     5    11     1    1
     6     1    14    1
     7    14    15   ar
     8    15    16   ar
     9    16    17   ar
    10    17    18    1
    11    17    19   ar
    12    19    20   ar
    13     1     2    1
    14     2     3    1
    15     3     4    1
    16     4    21    1
    17    21    22   ar
    18    22    23   ar
    19    23    24   ar
    20    24    25   ar
    21    25    26   ar
    22     4     5    2
    23    11    12   ar
    24    12    13   ar
    25    13     8   ar
    26     5     1    1
    27    20    14   ar
    28    26    21   ar
    29     3     6    1
@<TRIPOS>MOLECULE
*****
 26 29 0 0 0
SMALL
GASTEIGER

@<TRIPOS>ATOM
      1 C         140.3169  141.9148  165.4697 C.3     1  UNL1        0.2542
      2 C         140.0629  143.2645  166.0728 C.3     1  UNL1        0.2573
      3 N         140.0137  144.2680  164.9590 N.pl3   1  UNL1       -0.2136
      4 C         140.2374  143.5385  163.6676 C.2     1  UNL1        0.3356
      5 N         140.4247  142.0841  163.9832 N.2     1  UNL1       -0.0599
      6 H         139.8615  145.2356  165.0582 H       1  UNL1        0.2924
      7 F         141.2850  136.1210  164.2469 F       1  UNL1       -0.2042
      8 C         141.0430  137.5695  164.5526 C.ar    1  UNL1        0.1401
      9 C         139.7254  138.1986  164.2088 C.ar    1  UNL1        0.0295
     10 C         139.4834  139.6470  164.5145 C.ar    1  UNL1        0.0025
     11 C         140.5589  140.4663  165.1640 C.ar    1  UNL1        0.0298
     12 C         141.8765  139.8372  165.5078 C.ar    1  UNL1        0.0025
     13 C         142.1185  138.3888  165.2021 C.ar    1  UNL1        0.0295
     14 C         140.2597  141.4426  166.8923 C.ar    1  UNL1        0.0298
     15 C         141.1669  142.0496  167.9211 C.ar    1  UNL1        0.0025
     16 C         141.1097  141.5774  169.3436 C.ar    1  UNL1        0.0295
     17 C         140.1452  140.4982  169.7374 C.ar    1  UNL1        0.1401
     18 F         140.0880  140.0260  171.1600 F       1  UNL1       -0.2042
     19 C         139.2379  139.8912  168.7087 C.ar    1  UNL1        0.0295
     20 C         139.2952  140.3634  167.2861 C.ar    1  UNL1        0.0025
     21 C         140.2682  144.1552  162.3006 C.ar    1  UNL1        0.1819
     22 C         139.5790  145.4642  162.0526 C.ar    1  UNL1        0.1255
     23 N         139.6098  146.0809  160.6856 N.ar    1  UNL1       -0.2389
     24 C         140.3298  145.3887  159.5665 C.ar    1  UNL1        0.1195
     25 C         141.0190  144.0797  159.8145 C.ar    1  UNL1        0.1198
     26 N         140.9883  143.4629  161.1815 N.ar    1  UNL1       -0.2333
@<TRIPOS>BOND
     1     7     8    1
     2     8     9   ar
     3     9    10   ar
     4    10    11   ar
     5    11     1    1
     6     1    14    1
     7    14    15   ar
     8    15    16   ar
     9    16    17   ar
    10    17    18    1
    11    17    19   ar
    12    19    20   ar
    13     1     2    1
    14     2     3    1
    15     3     4    1
    16     4    21    1
    17    21    22   ar
    18    22    23   ar
    19    23    24   ar
    20    24    25   ar
    21    25    26   ar
    22     4     5    2
    23    11    12   ar
    24    12    13   ar
    25    13     8   ar
    26     5     1    1
    27    20    14   ar
    28    26    21   ar
    29     3     6    1
@<TRIPOS>MOLECULE
*****
 26 29 0 0 0
SMALL
GASTEIGER

@<TRIPOS>ATOM
      1 C         141.6260  139.5525  164.3613 C.3     1  UNL1        0.2542
      2 C         140.9163  138.2424  164.5344 C.3     1  UNL1        0.2573
      3 N         140.7221  137.6374  163.1756 N.pl3   1  UNL1       -0.2136
      4 C         141.3117  138.5735  162.1628 C.2     1  UNL1        0.3356
      5 N         141.8704  139.7571  162.8955 N.2     1  UNL1       -0.0599
      6 H         140.2844  136.7769  162.9825 H       1  UNL1        0.2924
      7 F         144.3809  144.8534  164.9189 F       1  UNL1       -0.2042
      8 C         143.6922  143.5282  164.7795 C.ar    1  UNL1        0.1401
      9 C         144.5018  142.2727  164.6450 C.ar    1  UNL1        0.0295
     10 C         143.8131  140.9474  164.5055 C.ar    1  UNL1        0.0025
     11 C         142.3147  140.8777  164.5007 C.ar    1  UNL1        0.0298
     12 C         141.5051  142.1332  164.6352 C.ar    1  UNL1        0.0025
     13 C         142.1939  143.4585  164.7746 C.ar    1  UNL1        0.0295
     14 C         141.5256  139.6249  165.8562 C.ar    1  UNL1        0.0298
     15 C         142.7226  139.3122  166.7043 C.ar    1  UNL1        0.0025
     16 C         142.6222  139.3846  168.1991 C.ar    1  UNL1        0.0295
     17 C         141.3248  139.7697  168.8459 C.ar    1  UNL1        0.1401
     18 F         141.2244  139.8421  170.3408 F       1  UNL1       -0.2042
     19 C         140.1277  140.0824  167.9978 C.ar    1  UNL1        0.0295
     20 C         140.2282  140.0100  166.5029 C.ar    1  UNL1        0.0025
     21 C         141.3381  138.3630  160.6778 C.ar    1  UNL1        0.1819
     22 C         140.0907  138.5644  159.8696 C.ar    1  UNL1        0.1255
     23 N         140.1169  138.3539  158.3847 N.ar    1  UNL1       -0.2389
     24 C         141.3907  137.9420  157.7080 C.ar    1  UNL1        0.1195
     25 C         142.6381  137.7406  158.5162 C.ar    1  UNL1        0.1198
     26 N         142.6119  137.9511  160.0012 N.ar    1  UNL1       -0.2333
@<TRIPOS>BOND
     1     7     8    1
     2     8     9   ar
     3     9    10   ar
     4    10    11   ar
     5    11     1    1
     6     1    14    1
     7    14    15   ar
     8    15    16   ar
     9    16    17   ar
    10    17    18    1
    11    17    19   ar
    12    19    20   ar
    13     1     2    1
    14     2     3    1
    15     3     4    1
    16     4    21    1
    17    21    22   ar
    18    22    23   ar
    19    23    24   ar
    20    24    25   ar
    21    25    26   ar
    22     4     5    2
    23    11    12   ar
    24    12    13   ar
    25    13     8   ar
    26     5     1    1
    27    20    14   ar
    28    26    21   ar
    29     3     6    1
