@<TRIPOS>MOLECULE
*****
 34 37 0 0 0
SMALL
GASTEIGER

@<TRIPOS>ATOM
      1 N         139.7469  141.1540  166.8491 N.3     1  UNL1       -0.2691
      2 C         138.9582  140.3616  165.8491 C.3     1  UNL1        0.0724
      3 C         138.3814  141.0396  164.6418 C.3     1  UNL1        0.0188
      4 C         138.5934  142.5100  164.4344 C.3     1  UNL1        0.0188
      5 C         139.3822  143.3024  165.4343 C.3     1  UNL1        0.0188
      6 C         139.9590  142.6245  166.6417 C.3     1  UNL1        0.0724
      7 C         140.3237  140.4760  168.0564 C.3     1  UNL1        0.0987
      8 O         139.9025  140.9127  170.5827 O.co2   1  UNL1       -0.5478
      9 C         139.4832  140.2888  169.2846 C.2     1  UNL1        0.0652
     10 O         138.2233  139.4777  169.2147 O.co2   1  UNL1       -0.5478
     11 C         141.7410  139.9853  168.0355 C.3     1  UNL1        0.0489
     12 C         142.4970  139.9313  166.7411 C.ar    1  UNL1       -0.0099
     13 C         142.4836  138.6783  165.9164 C.ar    1  UNL1       -0.0034
     14 C         143.2396  138.6243  164.6220 C.ar    1  UNL1       -0.0003
     15 C         144.0090  139.8232  164.1522 C.ar    1  UNL1        0.0008
     16 C         144.0224  141.0761  164.9769 C.ar    1  UNL1        0.0111
     17 C         143.2664  141.1301  166.2713 C.ar    1  UNL1        0.0537
     18 CL        143.2798  142.3830  167.0960 Cl      1  UNL1       -0.0826
     19 C         138.0167  143.1879  163.2270 C.3     1  UNL1        0.0721
     20 N         138.9256  143.8343  162.2240 N.3     1  UNL1       -0.2724
     21 C         139.4905  143.0261  161.0935 C.3     1  UNL1        0.0758
     22 C         140.3994  143.6724  160.0904 C.3     1  UNL1        0.0609
     23 C         140.7434  145.1269  160.2178 C.3     1  UNL1        0.1687
     24 C         140.1786  145.9350  161.3482 C.3     1  UNL1        0.0609
     25 C         139.2696  145.2887  162.3513 C.3     1  UNL1        0.0758
     26 O         141.6523  145.7732  159.2147 O.3     1  UNL1       -0.4790
     27 C         141.3454  145.6720  157.7499 C.ar    1  UNL1        0.1393
     28 C         142.2912  144.9540  156.8334 C.ar    1  UNL1        0.0378
     29 C         141.9844  144.8529  155.3686 C.ar    1  UNL1        0.0154
     30 C         140.7318  145.4697  154.8203 C.ar    1  UNL1        0.0684
     31 CL        140.4250  145.3685  153.3555 Cl      1  UNL1       -0.0814
     32 C         139.7860  146.1877  155.7368 C.ar    1  UNL1        0.0712
     33 CL        138.5335  146.8045  155.1886 Cl      1  UNL1       -0.0813
     34 C         140.0929  146.2888  157.2017 C.ar    1  UNL1        0.0491
@<TRIPOS>UNITY_ATOM_ATTR
8 1
charge -1
@<TRIPOS>BOND
     1     8     9   ar
     2     9    10   ar
     3     9     7    1
     4     7    11    1
     5    11    12    1
     6    12    13   ar
     7    13    14   ar
     8    14    15   ar
     9    15    16   ar
    10    16    17   ar
    11    17    18    1
    12     7     1    1
    13     1     2    1
    14     2     3    1
    15     3     4    1
    16     4    19    1
    17    19    20    1
    18    20    21    1
    19    21    22    1
    20    22    23    1
    21    23    26    1
    22    26    27    1
    23    27    28   ar
    24    28    29   ar
    25    29    30   ar
    26    30    31    1
    27    30    32   ar
    28    32    33    1
    29    32    34   ar
    30    23    24    1
    31    24    25    1
    32     4     5    1
    33     5     6    1
    34    17    12   ar
    35     6     1    1
    36    25    20    1
    37    34    27   ar
@<TRIPOS>MOLECULE
*****
 34 37 0 0 0
SMALL
GASTEIGER

@<TRIPOS>ATOM
      1 N         141.6203  140.6131  166.8012 N.3     1  UNL1       -0.2691
      2 C         140.2238  140.3870  166.3025 C.3     1  UNL1        0.0724
      3 C         139.5027  141.4798  165.5704 C.3     1  UNL1        0.0188
      4 C         140.1781  142.7986  165.3371 C.3     1  UNL1        0.0188
      5 C         141.5747  143.0247  165.8358 C.3     1  UNL1        0.0188
      6 C         142.2958  141.9320  166.5678 C.3     1  UNL1        0.0724
      7 C         142.3414  139.5203  167.5332 C.3     1  UNL1        0.0987
      8 O         141.3996  140.4061  169.7868 O.co2   1  UNL1       -0.5478
      9 C         142.2599  139.4389  169.0288 C.2     1  UNL1        0.0652
     10 O         143.0386  138.3903  169.7664 O.co2   1  UNL1       -0.5478
     11 C         143.1440  138.5089  166.7696 C.3     1  UNL1        0.0489
     12 C         143.3569  138.6792  165.2946 C.ar    1  UNL1       -0.0099
     13 C         144.5193  139.4835  164.7926 C.ar    1  UNL1       -0.0034
     14 C         144.7322  139.6538  163.3176 C.ar    1  UNL1       -0.0003
     15 C         143.7828  139.0197  162.3446 C.ar    1  UNL1        0.0008
     16 C         142.6205  138.2154  162.8467 C.ar    1  UNL1        0.0111
     17 C         142.4076  138.0451  164.3217 C.ar    1  UNL1        0.0537
     18 CL        141.2453  137.2408  164.8238 Cl      1  UNL1       -0.0826
     19 C         139.4571  143.8914  164.6050 C.3     1  UNL1        0.0721
     20 N         139.9009  144.2923  163.2295 N.3     1  UNL1       -0.2724
     21 C         139.3844  145.5591  162.6141 C.3     1  UNL1        0.0758
     22 C         139.8283  145.9599  161.2385 C.3     1  UNL1        0.0609
     23 C         140.7887  145.0942  160.4783 C.3     1  UNL1        0.1687
     24 C         141.3052  143.8275  161.0936 C.3     1  UNL1        0.0609
     25 C         140.8613  143.4265  162.4692 C.3     1  UNL1        0.0758
     26 O         141.2325  145.4951  159.1027 O.3     1  UNL1       -0.4790
     27 C         140.3128  145.3060  157.9329 C.ar    1  UNL1        0.1393
     28 C         139.7016  143.9618  157.6691 C.ar    1  UNL1        0.0378
     29 C         138.7819  143.7726  156.4993 C.ar    1  UNL1        0.0154
     30 C         138.4732  144.9277  155.5934 C.ar    1  UNL1        0.0684
     31 CL        137.5535  144.7386  154.4237 Cl      1  UNL1       -0.0814
     32 C         139.0844  146.2719  155.8573 C.ar    1  UNL1        0.0712
     33 CL        138.7758  147.4270  154.9515 Cl      1  UNL1       -0.0813
     34 C         140.0042  146.4610  157.0271 C.ar    1  UNL1        0.0491
@<TRIPOS>UNITY_ATOM_ATTR
8 1
charge -1
@<TRIPOS>BOND
     1     8     9   ar
     2     9    10   ar
     3     9     7    1
     4     7    11    1
     5    11    12    1
     6    12    13   ar
     7    13    14   ar
     8    14    15   ar
     9    15    16   ar
    10    16    17   ar
    11    17    18    1
    12     7     1    1
    13     1     2    1
    14     2     3    1
    15     3     4    1
    16     4    19    1
    17    19    20    1
    18    20    21    1
    19    21    22    1
    20    22    23    1
    21    23    26    1
    22    26    27    1
    23    27    28   ar
    24    28    29   ar
    25    29    30   ar
    26    30    31    1
    27    30    32   ar
    28    32    33    1
    29    32    34   ar
    30    23    24    1
    31    24    25    1
    32     4     5    1
    33     5     6    1
    34    17    12   ar
    35     6     1    1
    36    25    20    1
    37    34    27   ar
@<TRIPOS>MOLECULE
*****
 34 37 0 0 0
SMALL
GASTEIGER

@<TRIPOS>ATOM
      1 N         141.3768  140.0676  166.5471 N.3     1  UNL1       -0.2691
      2 C         142.2436  138.9005  166.1775 C.3     1  UNL1        0.0724
      3 C         143.4067  139.0941  165.2502 C.3     1  UNL1        0.0188
      4 C         143.7030  140.4547  164.6927 C.3     1  UNL1        0.0188
      5 C         142.8362  141.6218  165.0624 C.3     1  UNL1        0.0188
      6 C         141.6731  141.4283  165.9896 C.3     1  UNL1        0.0724
      7 C         140.2137  139.8740  167.4743 C.3     1  UNL1        0.0987
      8 O         141.7251  139.6050  169.5704 O.co2   1  UNL1       -0.5478
      9 C         140.4101  139.9855  168.9572 C.2     1  UNL1        0.0652
     10 O         139.2913  140.4775  169.8270 O.co2   1  UNL1       -0.5478
     11 C         138.8542  139.5689  166.9186 C.3     1  UNL1        0.0489
     12 C         138.6993  139.2090  165.4707 C.ar    1  UNL1       -0.0099
     13 C         138.9141  137.7937  165.0225 C.ar    1  UNL1       -0.0034
     14 C         138.7592  137.4339  163.5745 C.ar    1  UNL1       -0.0003
     15 C         138.3896  138.4893  162.5748 C.ar    1  UNL1        0.0008
     16 C         138.1749  139.9046  163.0230 C.ar    1  UNL1        0.0111
     17 C         138.3298  140.2644  164.4709 C.ar    1  UNL1        0.0537
     18 CL        138.1150  141.6797  164.9192 Cl      1  UNL1       -0.0826
     19 C         144.8661  140.6483  163.7655 C.3     1  UNL1        0.0721
     20 N         144.6274  140.9479  162.3153 N.3     1  UNL1       -0.2724
     21 C         144.1469  139.8652  161.3949 C.3     1  UNL1        0.0758
     22 C         143.9082  140.1648  159.9447 C.3     1  UNL1        0.0609
     23 C         144.1499  141.5471  159.4147 C.3     1  UNL1        0.1687
     24 C         144.6303  142.6298  160.3350 C.3     1  UNL1        0.0609
     25 C         144.8690  142.3302  161.7853 C.3     1  UNL1        0.0758
     26 O         143.9111  141.8468  157.9645 O.3     1  UNL1       -0.4790
     27 C         145.0563  141.8257  156.9959 C.ar    1  UNL1        0.1393
     28 C         146.3465  142.5065  157.3450 C.ar    1  UNL1        0.0378
     29 C         147.4917  142.4855  156.3765 C.ar    1  UNL1        0.0154
     30 C         147.3467  141.7836  155.0587 C.ar    1  UNL1        0.0684
     31 CL        148.4918  141.7626  154.0901 Cl      1  UNL1       -0.0814
     32 C         146.0565  141.1028  154.7095 C.ar    1  UNL1        0.0712
     33 CL        145.9114  140.4010  153.3918 Cl      1  UNL1       -0.0813
     34 C         144.9113  141.1239  155.6782 C.ar    1  UNL1        0.0491
@<TRIPOS>UNITY_ATOM_ATTR
8 1
charge -1
@<TRIPOS>BOND
     1     8     9   ar
     2     9    10   ar
     3     9     7    1
     4     7    11    1
     5    11    12    1
     6    12    13   ar
     7    13    14   ar
     8    14    15   ar
     9    15    16   ar
    10    16    17   ar
    11    17    18    1
    12     7     1    1
    13     1     2    1
    14     2     3    1
    15     3     4    1
    16     4    19    1
    17    19    20    1
    18    20    21    1
    19    21    22    1
    20    22    23    1
    21    23    26    1
    22    26    27    1
    23    27    28   ar
    24    28    29   ar
    25    29    30   ar
    26    30    31    1
    27    30    32   ar
    28    32    33    1
    29    32    34   ar
    30    23    24    1
    31    24    25    1
    32     4     5    1
    33     5     6    1
    34    17    12   ar
    35     6     1    1
    36    25    20    1
    37    34    27   ar
@<TRIPOS>MOLECULE
*****
 34 37 0 0 0
SMALL
GASTEIGER

@<TRIPOS>ATOM
      1 N         142.9247  140.8758  166.9917 N.3     1  UNL1       -0.2691
      2 C         143.4105  141.8469  165.9568 C.3     1  UNL1        0.0724
      3 C         144.0064  141.3424  164.6761 C.3     1  UNL1        0.0188
      4 C         144.1164  139.8668  164.4301 C.3     1  UNL1        0.0188
      5 C         143.6305  138.8956  165.4650 C.3     1  UNL1        0.0188
      6 C         143.0347  139.4002  166.7458 C.3     1  UNL1        0.0724
      7 C         142.3288  141.3804  168.2725 C.3     1  UNL1        0.0987
      8 O         143.7628  142.9002  169.8164 O.co2   1  UNL1       -0.5478
      9 C         143.1940  141.5522  169.4857 C.2     1  UNL1        0.0652
     10 O         143.4905  140.3760  170.3682 O.co2   1  UNL1       -0.5478
     11 C         140.8677  141.7131  168.3400 C.3     1  UNL1        0.0489
     12 C         139.9162  141.1178  167.3449 C.ar    1  UNL1       -0.0099
     13 C         139.3057  139.7721  167.6031 C.ar    1  UNL1       -0.0034
     14 C         138.3542  139.1768  166.6080 C.ar    1  UNL1       -0.0003
     15 C         138.0132  139.9272  165.3547 C.ar    1  UNL1        0.0008
     16 C         138.6236  141.2728  165.0966 C.ar    1  UNL1        0.0111
     17 C         139.5751  141.8681  166.0917 C.ar    1  UNL1        0.0537
     18 CL        140.1856  143.2137  165.8336 Cl      1  UNL1       -0.0826
     19 C         144.7122  139.3623  163.1493 C.3     1  UNL1        0.0721
     20 N         143.8420  139.1660  161.9435 N.3     1  UNL1       -0.2724
     21 C         142.7114  138.1811  161.9868 C.3     1  UNL1        0.0758
     22 C         141.8412  137.9848  160.7809 C.3     1  UNL1        0.0609
     23 C         142.1016  138.7733  159.5317 C.3     1  UNL1        0.1687
     24 C         143.2322  139.7581  159.4883 C.3     1  UNL1        0.0609
     25 C         144.1024  139.9544  160.6943 C.3     1  UNL1        0.0758
     26 O         141.2314  138.5770  158.3258 O.3     1  UNL1       -0.4790
     27 C         141.6013  137.5547  157.2923 C.ar    1  UNL1        0.1393
     28 C         142.8355  136.7210  157.4702 C.ar    1  UNL1        0.0378
     29 C         143.2055  135.6987  156.4368 C.ar    1  UNL1        0.0154
     30 C         142.3413  135.5101  155.2253 C.ar    1  UNL1        0.0684
     31 CL        142.7113  134.4879  154.1919 Cl      1  UNL1       -0.0814
     32 C         141.1071  136.3439  155.0473 C.ar    1  UNL1        0.0712
     33 CL        140.2429  136.1553  153.8359 Cl      1  UNL1       -0.0813
     34 C         140.7371  137.3662  156.0809 C.ar    1  UNL1        0.0491
@<TRIPOS>UNITY_ATOM_ATTR
8 1
charge -1
@<TRIPOS>BOND
     1     8     9   ar
     2     9    10   ar
     3     9     7    1
     4     7    11    1
     5    11    12    1
     6    12    13   ar
     7    13    14   ar
     8    14    15   ar
     9    15    16   ar
    10    16    17   ar
    11    17    18    1
    12     7     1    1
    13     1     2    1
    14     2     3    1
    15     3     4    1
    16     4    19    1
    17    19    20    1
    18    20    21    1
    19    21    22    1
    20    22    23    1
    21    23    26    1
    22    26    27    1
    23    27    28   ar
    24    28    29   ar
    25    29    30   ar
    26    30    31    1
    27    30    32   ar
    28    32    33    1
    29    32    34   ar
    30    23    24    1
    31    24    25    1
    32     4     5    1
    33     5     6    1
    34    17    12   ar
    35     6     1    1
    36    25    20    1
    37    34    27   ar
@<TRIPOS>MOLECULE
*****
 34 37 0 0 0
SMALL
GASTEIGER

@<TRIPOS>ATOM
      1 N         141.4159  140.0757  166.5711 N.3     1  UNL1       -0.2691
      2 C         141.8187  141.4240  166.0517 C.3     1  UNL1        0.0724
      3 C         142.9746  141.5480  165.1039 C.3     1  UNL1        0.0188
      4 C         143.7278  140.3236  164.6754 C.3     1  UNL1        0.0188
      5 C         143.3250  138.9752  165.1947 C.3     1  UNL1        0.0188
      6 C         142.1691  138.8513  166.1426 C.3     1  UNL1        0.0724
      7 C         140.2600  139.9517  167.5190 C.3     1  UNL1        0.0987
      8 O         139.3805  140.5630  169.8860 O.co2   1  UNL1       -0.5478
      9 C         140.4854  140.0746  168.9968 C.2     1  UNL1        0.0652
     10 O         141.8158  139.7092  169.5855 O.co2   1  UNL1       -0.5478
     11 C         138.8786  139.7049  166.9889 C.3     1  UNL1        0.0489
     12 C         138.6061  139.8282  165.5191 C.ar    1  UNL1       -0.0099
     13 C         138.2382  141.1594  164.9336 C.ar    1  UNL1       -0.0034
     14 C         137.9657  141.2827  163.4637 C.ar    1  UNL1       -0.0003
     15 C         138.0612  140.0749  162.5793 C.ar    1  UNL1        0.0008
     16 C         138.4291  138.7438  163.1648 C.ar    1  UNL1        0.0111
     17 C         138.7016  138.6205  164.6347 C.ar    1  UNL1        0.0537
     18 CL        139.0695  137.2894  165.2201 Cl      1  UNL1       -0.0826
     19 C         144.8837  140.4476  163.7275 C.3     1  UNL1        0.0721
     20 N         144.6430  140.8292  162.2970 N.3     1  UNL1       -0.2724
     21 C         144.9316  142.2267  161.8347 C.3     1  UNL1        0.0758
     22 C         144.6909  142.6083  160.4042 C.3     1  UNL1        0.0609
     23 C         144.1615  141.5923  159.4359 C.3     1  UNL1        0.1687
     24 C         143.8729  140.1949  159.8981 C.3     1  UNL1        0.0609
     25 C         144.1136  139.8132  161.3287 C.3     1  UNL1        0.0758
     26 O         143.9208  141.9739  158.0053 O.3     1  UNL1       -0.4790
     27 C         145.0427  141.9057  157.0119 C.ar    1  UNL1        0.1393
     28 C         146.3590  142.5549  157.3215 C.ar    1  UNL1        0.0378
     29 C         147.4809  142.4868  156.3282 C.ar    1  UNL1        0.0154
     30 C         147.2865  141.7694  155.0252 C.ar    1  UNL1        0.0684
     31 CL        148.4083  141.7013  154.0319 Cl      1  UNL1       -0.0814
     32 C         145.9701  141.1202  154.7156 C.ar    1  UNL1        0.0712
     33 CL        145.7757  140.4029  153.4128 Cl      1  UNL1       -0.0813
     34 C         144.8483  141.1884  155.7090 C.ar    1  UNL1        0.0491
@<TRIPOS>UNITY_ATOM_ATTR
8 1
charge -1
@<TRIPOS>BOND
     1     8     9   ar
     2     9    10   ar
     3     9     7    1
     4     7    11    1
     5    11    12    1
     6    12    13   ar
     7    13    14   ar
     8    14    15   ar
     9    15    16   ar
    10    16    17   ar
    11    17    18    1
    12     7     1    1
    13     1     2    1
    14     2     3    1
    15     3     4    1
    16     4    19    1
    17    19    20    1
    18    20    21    1
    19    21    22    1
    20    22    23    1
    21    23    26    1
    22    26    27    1
    23    27    28   ar
    24    28    29   ar
    25    29    30   ar
    26    30    31    1
    27    30    32   ar
    28    32    33    1
    29    32    34   ar
    30    23    24    1
    31    24    25    1
    32     4     5    1
    33     5     6    1
    34    17    12   ar
    35     6     1    1
    36    25    20    1
    37    34    27   ar
@<TRIPOS>MOLECULE
*****
 34 37 0 0 0
SMALL
GASTEIGER

@<TRIPOS>ATOM
      1 N         140.4154  139.7505  166.9257 N.3     1  UNL1       -0.2691
      2 C         141.3968  139.1362  165.9721 C.3     1  UNL1        0.0724
      3 C         140.9059  138.4080  164.7561 C.3     1  UNL1        0.0188
      4 C         139.4334  138.2941  164.4937 C.3     1  UNL1        0.0188
      5 C         138.4519  138.9083  165.4474 C.3     1  UNL1        0.0188
      6 C         138.9429  139.6366  166.6634 C.3     1  UNL1        0.0724
      7 C         140.9064  140.4787  168.1417 C.3     1  UNL1        0.0987
      8 O         139.8910  139.5918  170.3626 O.co2   1  UNL1       -0.5478
      9 C         141.0646  139.7467  169.4414 C.2     1  UNL1        0.0652
     10 O         142.3965  139.1696  169.8198 O.co2   1  UNL1       -0.5478
     11 C         141.2392  141.9390  168.0580 C.3     1  UNL1        0.0489
     12 C         141.9180  142.4847  166.8368 C.ar    1  UNL1       -0.0099
     13 C         143.4151  142.4741  166.7431 C.ar    1  UNL1       -0.0034
     14 C         144.0940  143.0198  165.5219 C.ar    1  UNL1       -0.0003
     15 C         143.2758  143.5761  164.3944 C.ar    1  UNL1        0.0008
     16 C         141.7788  143.5866  164.4882 C.ar    1  UNL1        0.0111
     17 C         141.0999  143.0409  165.7094 C.ar    1  UNL1        0.0537
     18 CL        139.6029  143.0515  165.8031 Cl      1  UNL1       -0.0826
     19 C         138.9424  137.5659  163.2777 C.3     1  UNL1        0.0721
     20 N         138.8804  138.2710  161.9553 N.3     1  UNL1       -0.2724
     21 C         137.6937  139.1231  161.6146 C.3     1  UNL1        0.0758
     22 C         137.6316  139.8282  160.2922 C.3     1  UNL1        0.0609
     23 C         138.7562  139.6815  159.3105 C.3     1  UNL1        0.1687
     24 C         139.9428  138.8295  159.6511 C.3     1  UNL1        0.0609
     25 C         140.0049  138.1243  160.9736 C.3     1  UNL1        0.0758
     26 O         138.6941  140.3866  157.9880 O.3     1  UNL1       -0.4790
     27 C         139.1304  141.8178  157.8800 C.ar    1  UNL1        0.1393
     28 C         138.7741  142.6207  156.6641 C.ar    1  UNL1        0.0378
     29 C         139.2103  144.0517  156.5560 C.ar    1  UNL1        0.0154
     30 C         140.0030  144.6799  157.6638 C.ar    1  UNL1        0.0684
     31 CL        140.4393  146.1110  157.5557 Cl      1  UNL1       -0.0814
     32 C         140.3594  143.8770  158.8797 C.ar    1  UNL1        0.0712
     33 CL        141.1520  144.5051  159.9874 Cl      1  UNL1       -0.0813
     34 C         139.9231  142.4459  158.9877 C.ar    1  UNL1        0.0491
@<TRIPOS>UNITY_ATOM_ATTR
8 1
charge -1
@<TRIPOS>BOND
     1     8     9   ar
     2     9    10   ar
     3     9     7    1
     4     7    11    1
     5    11    12    1
     6    12    13   ar
     7    13    14   ar
     8    14    15   ar
     9    15    16   ar
    10    16    17   ar
    11    17    18    1
    12     7     1    1
    13     1     2    1
    14     2     3    1
    15     3     4    1
    16     4    19    1
    17    19    20    1
    18    20    21    1
    19    21    22    1
    20    22    23    1
    21    23    26    1
    22    26    27    1
    23    27    28   ar
    24    28    29   ar
    25    29    30   ar
    26    30    31    1
    27    30    32   ar
    28    32    33    1
    29    32    34   ar
    30    23    24    1
    31    24    25    1
    32     4     5    1
    33     5     6    1
    34    17    12   ar
    35     6     1    1
    36    25    20    1
    37    34    27   ar
@<TRIPOS>MOLECULE
*****
 34 37 0 0 0
SMALL
GASTEIGER

@<TRIPOS>ATOM
      1 N         140.3157  141.9987  159.0664 N.3     1  UNL1       -0.2691
      2 C         141.1460  140.8664  159.5943 C.3     1  UNL1        0.0724
      3 C         140.5077  139.7908  160.4222 C.3     1  UNL1        0.0188
      4 C         139.0391  139.8473  160.7223 C.3     1  UNL1        0.0188
      5 C         138.2088  140.9796  160.1944 C.3     1  UNL1        0.0188
      6 C         138.8471  142.0553  159.3665 C.3     1  UNL1        0.0724
      7 C         140.9540  143.0743  158.2384 C.3     1  UNL1        0.0987
      8 O         140.1167  141.9372  156.0576 O.co2   1  UNL1       -0.5478
      9 C         140.7210  143.1184  156.7573 C.2     1  UNL1        0.0652
     10 O         141.0922  144.3438  155.9758 O.co2   1  UNL1       -0.5478
     11 C         141.8254  144.1059  158.8916 C.3     1  UNL1        0.0489
     12 C         141.5336  144.5559  160.2925 C.ar    1  UNL1       -0.0099
     13 C         140.3882  145.4876  160.5577 C.ar    1  UNL1       -0.0034
     14 C         140.0964  145.9375  161.9586 C.ar    1  UNL1       -0.0003
     15 C         140.9500  145.4558  163.0942 C.ar    1  UNL1        0.0008
     16 C         142.0952  144.5243  162.8289 C.ar    1  UNL1        0.0111
     17 C         142.3870  144.0743  161.4281 C.ar    1  UNL1        0.0537
     18 CL        143.5323  143.1427  161.1628 Cl      1  UNL1       -0.0826
     19 C         138.4008  138.7716  161.5503 C.3     1  UNL1        0.0721
     20 N         138.4643  138.8404  163.0473 N.3     1  UNL1       -0.2724
     21 C         138.9252  137.6493  163.8340 C.3     1  UNL1        0.0758
     22 C         138.9887  137.7181  165.3310 C.3     1  UNL1        0.0609
     23 C         138.5912  138.9780  166.0415 C.3     1  UNL1        0.1687
     24 C         138.1302  140.1691  165.2549 C.3     1  UNL1        0.0609
     25 C         138.0668  140.1003  163.7577 C.3     1  UNL1        0.0758
     26 O         138.6546  139.0468  167.5385 O.3     1  UNL1       -0.4790
     27 C         139.5270  140.0682  168.2061 C.ar    1  UNL1        0.1393
     28 C         139.1968  140.5482  169.5884 C.ar    1  UNL1        0.0378
     29 C         140.0691  141.5696  170.2560 C.ar    1  UNL1        0.0154
     30 C         141.2717  142.1111  169.5413 C.ar    1  UNL1        0.0684
     31 CL        142.1441  143.1325  170.2089 Cl      1  UNL1       -0.0814
     32 C         141.6019  141.6311  168.1591 C.ar    1  UNL1        0.0712
     33 CL        142.8044  142.1726  167.4444 Cl      1  UNL1       -0.0813
     34 C         140.7295  140.6097  167.4915 C.ar    1  UNL1        0.0491
@<TRIPOS>UNITY_ATOM_ATTR
8 1
charge -1
@<TRIPOS>BOND
     1     8     9   ar
     2     9    10   ar
     3     9     7    1
     4     7    11    1
     5    11    12    1
     6    12    13   ar
     7    13    14   ar
     8    14    15   ar
     9    15    16   ar
    10    16    17   ar
    11    17    18    1
    12     7     1    1
    13     1     2    1
    14     2     3    1
    15     3     4    1
    16     4    19    1
    17    19    20    1
    18    20    21    1
    19    21    22    1
    20    22    23    1
    21    23    26    1
    22    26    27    1
    23    27    28   ar
    24    28    29   ar
    25    29    30   ar
    26    30    31    1
    27    30    32   ar
    28    32    33    1
    29    32    34   ar
    30    23    24    1
    31    24    25    1
    32     4     5    1
    33     5     6    1
    34    17    12   ar
    35     6     1    1
    36    25    20    1
    37    34    27   ar
@<TRIPOS>MOLECULE
*****
 34 37 0 0 0
SMALL
GASTEIGER

@<TRIPOS>ATOM
      1 N         140.2000  139.4900  162.9200 N.3     1  UNL1       -0.2691
      2 C         140.7428  140.5636  162.0241 C.3     1  UNL1        0.0724
      3 C         140.5276  140.4833  160.5418 C.3     1  UNL1        0.0188
      4 C         139.7696  139.3293  159.9554 C.3     1  UNL1        0.0188
      5 C         139.2268  138.2556  160.8513 C.3     1  UNL1        0.0188
      6 C         139.4420  138.3360  162.3336 C.3     1  UNL1        0.0724
      7 C         140.4152  139.5703  164.4023 C.3     1  UNL1        0.0987
      8 O         142.6544  138.2769  164.1506 O.co2   1  UNL1       -0.5478
      9 C         141.6652  139.0066  165.0103 C.2     1  UNL1        0.0652
     10 O         141.9261  139.1726  166.4781 O.co2   1  UNL1       -0.5478
     11 C         139.3803  140.2143  165.2766 C.3     1  UNL1        0.0489
     12 C         139.1037  141.6835  165.1536 C.ar    1  UNL1       -0.0099
     13 C         139.8617  142.6628  166.0001 C.ar    1  UNL1       -0.0034
     14 C         139.5850  144.1319  165.8772 C.ar    1  UNL1       -0.0003
     15 C         138.5504  144.6217  164.9078 C.ar    1  UNL1        0.0008
     16 C         137.7924  143.6424  164.0614 C.ar    1  UNL1        0.0111
     17 C         138.0691  142.1733  164.1843 C.ar    1  UNL1        0.0537
     18 CL        137.3112  141.1940  163.3379 Cl      1  UNL1       -0.0826
     19 C         139.5544  139.2490  158.4731 C.3     1  UNL1        0.0721
     20 N         140.3218  138.2517  157.6567 N.3     1  UNL1       -0.2724
     21 C         139.6452  137.5216  156.5346 C.3     1  UNL1        0.0758
     22 C         140.4125  136.5243  155.7182 C.3     1  UNL1        0.0609
     23 C         141.8565  136.2570  156.0240 C.3     1  UNL1        0.1687
     24 C         142.5331  136.9870  157.1461 C.3     1  UNL1        0.0609
     25 C         141.7657  137.9844  157.9625 C.3     1  UNL1        0.0758
     26 O         142.6239  135.2596  155.2077 O.3     1  UNL1       -0.4790
     27 C         142.9019  133.8931  155.7604 C.ar    1  UNL1        0.1393
     28 C         141.9988  132.7464  155.4149 C.ar    1  UNL1        0.0378
     29 C         142.2768  131.3799  155.9676 C.ar    1  UNL1        0.0154
     30 C         143.4580  131.1602  156.8658 C.ar    1  UNL1        0.0684
     31 CL        143.7360  129.7937  157.4185 Cl      1  UNL1       -0.0814
     32 C         144.3611  132.3069  157.2113 C.ar    1  UNL1        0.0712
     33 CL        145.5421  132.0873  158.1094 Cl      1  UNL1       -0.0813
     34 C         144.0830  133.6734  156.6586 C.ar    1  UNL1        0.0491
@<TRIPOS>UNITY_ATOM_ATTR
8 1
charge -1
@<TRIPOS>BOND
     1     8     9   ar
     2     9    10   ar
     3     9     7    1
     4     7    11    1
     5    11    12    1
     6    12    13   ar
     7    13    14   ar
     8    14    15   ar
     9    15    16   ar
    10    16    17   ar
    11    17    18    1
    12     7     1    1
    13     1     2    1
    14     2     3    1
    15     3     4    1
    16     4    19    1
    17    19    20    1
    18    20    21    1
    19    21    22    1
    20    22    23    1
    21    23    26    1
    22    26    27    1
    23    27    28   ar
    24    28    29   ar
    25    29    30   ar
    26    30    31    1
    27    30    32   ar
    28    32    33    1
    29    32    34   ar
    30    23    24    1
    31    24    25    1
    32     4     5    1
    33     5     6    1
    34    17    12   ar
    35     6     1    1
    36    25    20    1
    37    34    27   ar
@<TRIPOS>MOLECULE
*****
 34 37 0 0 0
SMALL
GASTEIGER

@<TRIPOS>ATOM
      1 N         139.8122  140.8649  166.7827 N.3     1  UNL1       -0.2691
      2 C         139.8288  142.2464  166.1986 C.3     1  UNL1        0.0724
      3 C         138.9810  142.5654  165.0030 C.3     1  UNL1        0.0188
      4 C         138.1168  141.5029  164.3913 C.3     1  UNL1        0.0188
      5 C         138.1002  140.1214  164.9754 C.3     1  UNL1        0.0188
      6 C         138.9479  139.8024  166.1711 C.3     1  UNL1        0.0724
      7 C         140.6599  140.5459  167.9783 C.3     1  UNL1        0.0987
      8 O         139.3294  139.7338  170.0568 O.co2   1  UNL1       -0.5478
      9 C         140.1311  140.7930  169.3601 C.2     1  UNL1        0.0652
     10 O         140.4040  142.0992  170.0452 O.co2   1  UNL1       -0.5478
     11 C         142.0366  139.9799  167.7922 C.3     1  UNL1        0.0489
     12 C         142.6612  139.9599  166.4286 C.ar    1  UNL1       -0.0099
     13 C         142.6006  138.7149  165.5940 C.ar    1  UNL1       -0.0034
     14 C         143.2252  138.6949  164.2304 C.ar    1  UNL1       -0.0003
     15 C         143.9104  139.9200  163.7013 C.ar    1  UNL1        0.0008
     16 C         143.9710  141.1649  164.5359 C.ar    1  UNL1        0.0111
     17 C         143.3464  141.1848  165.8995 C.ar    1  UNL1        0.0537
     18 CL        143.4070  142.4297  166.7340 Cl      1  UNL1       -0.0826
     19 C         137.2691  141.8219  163.1957 C.3     1  UNL1        0.0721
     20 N         137.7609  141.4912  161.8178 N.3     1  UNL1       -0.2724
     21 C         137.6684  140.0842  161.3060 C.3     1  UNL1        0.0758
     22 C         138.1603  139.7534  159.9281 C.3     1  UNL1        0.0609
     23 C         138.7447  140.8296  159.0620 C.3     1  UNL1        0.1687
     24 C         138.8372  142.2366  159.5737 C.3     1  UNL1        0.0609
     25 C         138.3453  142.5674  160.9516 C.3     1  UNL1        0.0758
     26 O         139.2366  140.4989  157.6841 O.3     1  UNL1       -0.4790
     27 C         140.1981  139.3652  157.4829 C.ar    1  UNL1        0.1393
     28 C         141.4931  139.3370  158.2393 C.ar    1  UNL1        0.0378
     29 C         142.4546  138.2034  158.0383 C.ar    1  UNL1        0.0154
     30 C         142.1211  137.0979  157.0807 C.ar    1  UNL1        0.0684
     31 CL        143.0825  135.9643  156.8796 Cl      1  UNL1       -0.0814
     32 C         140.8260  137.1261  156.3243 C.ar    1  UNL1        0.0712
     33 CL        140.4925  136.0207  155.3669 Cl      1  UNL1       -0.0813
     34 C         139.8645  138.2598  156.5255 C.ar    1  UNL1        0.0491
@<TRIPOS>UNITY_ATOM_ATTR
8 1
charge -1
@<TRIPOS>BOND
     1     8     9   ar
     2     9    10   ar
     3     9     7    1
     4     7    11    1
     5    11    12    1
     6    12    13   ar
     7    13    14   ar
     8    14    15   ar
     9    15    16   ar
    10    16    17   ar
    11    17    18    1
    12     7     1    1
    13     1     2    1
    14     2     3    1
    15     3     4    1
    16     4    19    1
    17    19    20    1
    18    20    21    1
    19    21    22    1
    20    22    23    1
    21    23    26    1
    22    26    27    1
    23    27    28   ar
    24    28    29   ar
    25    29    30   ar
    26    30    31    1
    27    30    32   ar
    28    32    33    1
    29    32    34   ar
    30    23    24    1
    31    24    25    1
    32     4     5    1
    33     5     6    1
    34    17    12   ar
    35     6     1    1
    36    25    20    1
    37    34    27   ar
