@<TRIPOS>MOLECULE
*****
 35 38 0 0 0
SMALL
GASTEIGER

@<TRIPOS>ATOM
      1 C         139.6785  139.7761  167.9201 C.ar    1  UNL1        0.1383
      2 N         138.5116  139.6083  168.8475 N.ar    1  UNL1       -0.2088
      3 C         138.4964  140.3167  170.1696 C.ar    1  UNL1        0.2000
      4 N         139.6481  141.1929  170.5643 N.ar    1  UNL1       -0.2238
      5 C         140.8150  141.3607  169.6369 C.ar    1  UNL1        0.0887
      6 C         141.9667  142.2369  170.0316 C.ar    1  UNL1        0.0195
      7 C         143.1337  142.4048  169.1043 C.ar    1  UNL1        0.0047
      8 C         143.1489  141.6964  167.7821 C.ar    1  UNL1        0.0371
      9 C         141.9972  140.8202  167.3874 C.ar    1  UNL1        0.1432
     10 C         140.8302  140.6523  168.3149 C.ar    1  UNL1        0.0833
     11 N         139.6938  139.0677  166.5980 N.pl3   1  UNL1       -0.2978
     12 H         140.0872  138.1681  166.5261 H       1  UNL1        0.1536
     13 C         137.9417  141.0547  162.9604 C.ar    1  UNL1        0.1414
     14 C         138.2111  141.8589  164.1977 C.ar    1  UNL1        0.0384
     15 C         138.7952  141.1965  165.4103 C.ar    1  UNL1        0.0178
     16 C         139.1098  139.7301  165.3855 C.ar    1  UNL1        0.0492
     17 C         138.8403  138.9260  164.1482 C.ar    1  UNL1        0.0134
     18 C         138.2562  139.5883  162.9357 C.ar    1  UNL1        0.0139
     19 C         137.9868  138.7842  161.6984 C.3     1  UNL1        0.0343
     20 O         137.3576  141.7171  161.7479 O.3     1  UNL1       -0.4522
     21 C         140.8462  145.0380  158.1702 C.3     1  UNL1        0.0521
     22 C         139.9741  144.2078  159.0646 C.ar    1  UNL1        0.0596
     23 C         139.2988  142.9816  158.5257 C.ar    1  UNL1        0.0179
     24 C         138.4267  142.1513  159.4201 C.ar    1  UNL1        0.0403
     25 C         138.2297  142.5473  160.8535 C.ar    1  UNL1        0.1643
     26 C         138.9050  143.7736  161.3924 C.ar    1  UNL1        0.1358
     27 N         139.7772  144.6038  160.4979 N.ar    1  UNL1       -0.2449
     28 O         142.0125  140.1118  166.0654 O.3     1  UNL1       -0.4698
     29 C         143.2001  139.2844  165.6714 C.3     1  UNL1        0.2413
     30 C         143.6728  138.1771  166.5661 C.3     1  UNL1        0.0574
     31 C         143.9149  139.5643  164.3827 C.2     1  UNL1        0.2660
     32 O         145.1186  140.4593  164.3719 O.2     1  UNL1       -0.2710
     33 N         143.4261  138.9492  163.1050 N.am    1  UNL1       -0.2731
     34 C         144.1409  139.2292  161.8163 C.3     1  UNL1        0.1150
     35 C         142.2224  138.0543  163.1159 C.3     1  UNL1        0.1150
@<TRIPOS>BOND
     1    21    22    1
     2    22    23   ar
     3    23    24   ar
     4    24    25   ar
     5    25    20    1
     6    20    13    1
     7    13    14   ar
     8    14    15   ar
     9    15    16   ar
    10    16    11    1
    11    11     1    1
    12     1     2   ar
    13     2     3   ar
    14     3     4   ar
    15     4     5   ar
    16     5     6   ar
    17     6     7   ar
    18     7     8   ar
    19     8     9   ar
    20     9    28    1
    21    28    29    1
    22    29    30    1
    23    29    31    1
    24    31    32    2
    25    31    33   am
    26    33    34    1
    27    33    35    1
    28     9    10   ar
    29    16    17   ar
    30    17    18   ar
    31    18    19    1
    32    25    26   ar
    33    26    27   ar
    34    27    22   ar
    35    18    13   ar
    36    10     1   ar
    37    10     5   ar
    38    11    12    1
@<TRIPOS>MOLECULE
*****
 35 38 0 0 0
SMALL
GASTEIGER

@<TRIPOS>ATOM
      1 C         140.0994  139.9474  168.0579 C.ar    1  UNL1        0.1383
      2 N         138.8129  139.6677  168.7766 N.ar    1  UNL1       -0.2088
      3 C         138.5424  140.3068  170.1064 C.ar    1  UNL1        0.2000
      4 N         139.5585  141.2256  170.7175 N.ar    1  UNL1       -0.2238
      5 C         140.8450  141.5053  169.9989 C.ar    1  UNL1        0.0887
      6 C         141.8611  142.4241  170.6100 C.ar    1  UNL1        0.0195
      7 C         143.1476  142.7038  169.8913 C.ar    1  UNL1        0.0047
      8 C         143.4182  142.0647  168.5615 C.ar    1  UNL1        0.0371
      9 C         142.4021  141.1459  167.9503 C.ar    1  UNL1        0.1432
     10 C         141.1155  140.8662  168.6691 C.ar    1  UNL1        0.0833
     11 N         140.3700  139.3083  166.7281 N.pl3   1  UNL1       -0.2978
     12 H         141.0601  138.6108  166.6485 H       1  UNL1        0.1536
     13 C         138.0270  140.5796  163.1026 C.ar    1  UNL1        0.1414
     14 C         138.5517  139.1779  163.2029 C.ar    1  UNL1        0.0384
     15 C         139.3327  138.7542  164.4114 C.ar    1  UNL1        0.0178
     16 C         139.5890  139.7321  165.5196 C.ar    1  UNL1        0.0492
     17 C         139.0643  141.1337  165.4193 C.ar    1  UNL1        0.0134
     18 C         138.2833  141.5575  164.2108 C.ar    1  UNL1        0.0139
     19 C         137.7585  142.9592  164.1105 C.3     1  UNL1        0.0343
     20 O         137.2460  141.0034  161.8941 O.3     1  UNL1       -0.4522
     21 C         140.0443  141.8276  156.6510 C.3     1  UNL1        0.0521
     22 C         139.3447  141.6216  157.9618 C.ar    1  UNL1        0.0596
     23 C         138.7707  140.2783  158.3025 C.ar    1  UNL1        0.0179
     24 C         138.0711  140.0722  159.6133 C.ar    1  UNL1        0.0403
     25 C         137.9456  141.2095  160.5834 C.ar    1  UNL1        0.1643
     26 C         138.5196  142.5528  160.2426 C.ar    1  UNL1        0.1358
     27 N         139.2192  142.7588  158.9318 N.ar    1  UNL1       -0.2449
     28 O         142.6726  140.5068  166.6206 O.3     1  UNL1       -0.4698
     29 C         142.9680  141.3616  165.4238 C.3     1  UNL1        0.2413
     30 C         143.3600  142.7979  165.6064 C.3     1  UNL1        0.0574
     31 C         142.8714  140.7801  164.0445 C.2     1  UNL1        0.2660
     32 O         141.7290  141.1589  163.1492 O.2     1  UNL1       -0.2710
     33 N         143.9170  139.8197  163.5606 N.am    1  UNL1       -0.2731
     34 C         143.8204  139.2381  162.1813 C.3     1  UNL1        0.1150
     35 C         145.0593  139.4409  164.4559 C.3     1  UNL1        0.1150
@<TRIPOS>BOND
     1    21    22    1
     2    22    23   ar
     3    23    24   ar
     4    24    25   ar
     5    25    20    1
     6    20    13    1
     7    13    14   ar
     8    14    15   ar
     9    15    16   ar
    10    16    11    1
    11    11     1    1
    12     1     2   ar
    13     2     3   ar
    14     3     4   ar
    15     4     5   ar
    16     5     6   ar
    17     6     7   ar
    18     7     8   ar
    19     8     9   ar
    20     9    28    1
    21    28    29    1
    22    29    30    1
    23    29    31    1
    24    31    32    2
    25    31    33   am
    26    33    34    1
    27    33    35    1
    28     9    10   ar
    29    16    17   ar
    30    17    18   ar
    31    18    19    1
    32    25    26   ar
    33    26    27   ar
    34    27    22   ar
    35    18    13   ar
    36    10     1   ar
    37    10     5   ar
    38    11    12    1
@<TRIPOS>MOLECULE
*****
 35 38 0 0 0
SMALL
GASTEIGER

@<TRIPOS>ATOM
      1 C         139.3866  141.2508  160.7198 C.ar    1  UNL1        0.1383
      2 N         139.9176  142.0413  159.5609 N.ar    1  UNL1       -0.2088
      3 C         139.9315  143.5400  159.6190 C.ar    1  UNL1        0.2000
      4 N         139.4143  144.2483  160.8359 N.ar    1  UNL1       -0.2238
      5 C         138.8833  143.4578  161.9948 C.ar    1  UNL1        0.0887
      6 C         138.3662  144.1661  163.2118 C.ar    1  UNL1        0.0195
      7 C         137.8352  143.3756  164.3706 C.ar    1  UNL1        0.0047
      8 C         137.8213  141.8767  164.3126 C.ar    1  UNL1        0.0371
      9 C         138.3384  141.1684  163.0957 C.ar    1  UNL1        0.1432
     10 C         138.8694  141.9590  161.9368 C.ar    1  UNL1        0.0833
     11 N         139.3726  139.7519  160.6618 N.pl3   1  UNL1       -0.2978
     12 H         138.8576  139.2383  161.3254 H       1  UNL1        0.1536
     13 C         141.6849  137.6028  157.4548 C.ar    1  UNL1        0.1414
     14 C         142.3622  137.9902  158.7359 C.ar    1  UNL1        0.0384
     15 C         141.5915  138.7066  159.8049 C.ar    1  UNL1        0.0178
     16 C         140.1434  139.0355  159.5928 C.ar    1  UNL1        0.0492
     17 C         139.4661  138.6482  158.3117 C.ar    1  UNL1        0.0134
     18 C         140.2369  137.9318  157.2427 C.ar    1  UNL1        0.0139
     19 C         139.5595  137.5444  155.9616 C.3     1  UNL1        0.0343
     20 O         142.4556  136.8865  156.3858 O.3     1  UNL1       -0.4522
     21 C         142.7258  130.8926  156.3876 C.3     1  UNL1        0.0521
     22 C         142.6582  132.3910  156.3871 C.ar    1  UNL1        0.0596
     23 C         141.7391  133.1001  155.4372 C.ar    1  UNL1        0.0179
     24 C         141.6715  134.5985  155.4367 C.ar    1  UNL1        0.0403
     25 C         142.5232  135.3880  156.3862 C.ar    1  UNL1        0.1643
     26 C         143.4423  134.6790  157.3362 C.ar    1  UNL1        0.1358
     27 N         143.5098  133.1804  157.3366 N.ar    1  UNL1       -0.2449
     28 O         138.3245  139.6697  163.0377 O.3     1  UNL1       -0.4698
     29 C         139.1735  138.8745  163.9848 C.3     1  UNL1        0.2413
     30 C         138.6711  138.5663  165.3641 C.3     1  UNL1        0.0574
     31 C         140.5248  138.3875  163.5526 C.2     1  UNL1        0.2660
     32 O         140.6607  137.0564  162.8744 O.2     1  UNL1       -0.2710
     33 N         141.7401  139.2316  163.7984 N.am    1  UNL1       -0.2731
     34 C         143.0914  138.7447  163.3661 C.3     1  UNL1        0.1150
     35 C         141.6041  140.5627  164.4764 C.3     1  UNL1        0.1150
@<TRIPOS>BOND
     1    21    22    1
     2    22    23   ar
     3    23    24   ar
     4    24    25   ar
     5    25    20    1
     6    20    13    1
     7    13    14   ar
     8    14    15   ar
     9    15    16   ar
    10    16    11    1
    11    11     1    1
    12     1     2   ar
    13     2     3   ar
    14     3     4   ar
    15     4     5   ar
    16     5     6   ar
    17     6     7   ar
    18     7     8   ar
    19     8     9   ar
    20     9    28    1
    21    28    29    1
    22    29    30    1
    23    29    31    1
    24    31    32    2
    25    31    33   am
    26    33    34    1
    27    33    35    1
    28     9    10   ar
    29    16    17   ar
    30    17    18   ar
    31    18    19    1
    32    25    26   ar
    33    26    27   ar
    34    27    22   ar
    35    18    13   ar
    36    10     1   ar
    37    10     5   ar
    38    11    12    1
@<TRIPOS>MOLECULE
*****
 35 38 0 0 0
SMALL
GASTEIGER

@<TRIPOS>ATOM
      1 C         141.4561  141.0927  165.1051 C.ar    1  UNL1        0.1383
      2 N         142.2928  142.0490  165.9023 N.ar    1  UNL1       -0.2088
      3 C         142.0089  142.2583  167.3602 C.ar    1  UNL1        0.2000
      4 N         140.8883  141.5115  168.0209 N.ar    1  UNL1       -0.2238
      5 C         140.0516  140.5553  167.2237 C.ar    1  UNL1        0.0887
      6 C         138.9310  139.8084  167.8844 C.ar    1  UNL1        0.0195
      7 C         138.0944  138.8522  167.0872 C.ar    1  UNL1        0.0047
      8 C         138.3783  138.6428  165.6292 C.ar    1  UNL1        0.0371
      9 C         139.4988  139.3896  164.9685 C.ar    1  UNL1        0.1432
     10 C         140.3355  140.3459  165.7658 C.ar    1  UNL1        0.0833
     11 N         141.7400  140.8833  163.6471 N.pl3   1  UNL1       -0.2978
     12 H         141.9396  139.9805  163.3092 H       1  UNL1        0.1536
     13 C         141.6793  144.3822  160.8180 C.ar    1  UNL1        0.1414
     14 C         142.6291  143.2450  160.5841 C.ar    1  UNL1        0.0384
     15 C         142.6494  142.0787  161.5272 C.ar    1  UNL1        0.0178
     16 C         141.7198  142.0496  162.7041 C.ar    1  UNL1        0.0492
     17 C         140.7700  143.1868  162.9379 C.ar    1  UNL1        0.0134
     18 C         140.7498  144.3531  161.9948 C.ar    1  UNL1        0.0139
     19 C         139.8000  145.4904  162.2287 C.3     1  UNL1        0.0343
     20 O         141.6591  145.5485  159.8749 O.3     1  UNL1       -0.4522
     21 C         140.1760  144.7273  154.1194 C.3     1  UNL1        0.0521
     22 C         140.5468  144.9326  155.5583 C.ar    1  UNL1        0.0596
     23 C         139.6722  144.3799  156.6444 C.ar    1  UNL1        0.0179
     24 C         140.0429  144.5852  158.0832 C.ar    1  UNL1        0.0403
     25 C         141.2883  145.3432  158.4361 C.ar    1  UNL1        0.1643
     26 C         142.1629  145.8960  157.3500 C.ar    1  UNL1        0.1358
     27 N         141.7921  145.6906  155.9110 N.ar    1  UNL1       -0.2449
     28 O         139.7827  139.1803  163.5106 O.3     1  UNL1       -0.4698
     29 C         138.6636  139.2344  162.5132 C.3     1  UNL1        0.2413
     30 C         138.0282  137.9648  162.0294 C.3     1  UNL1        0.0574
     31 C         138.1800  140.5582  161.9998 C.2     1  UNL1        0.2660
     32 O         137.1304  141.3179  162.7558 O.2     1  UNL1       -0.2710
     33 N         138.7459  141.1225  160.7304 N.am    1  UNL1       -0.2731
     34 C         138.2623  142.4463  160.2170 C.3     1  UNL1        0.1150
     35 C         139.7954  140.3628  159.9745 C.3     1  UNL1        0.1150
@<TRIPOS>BOND
     1    21    22    1
     2    22    23   ar
     3    23    24   ar
     4    24    25   ar
     5    25    20    1
     6    20    13    1
     7    13    14   ar
     8    14    15   ar
     9    15    16   ar
    10    16    11    1
    11    11     1    1
    12     1     2   ar
    13     2     3   ar
    14     3     4   ar
    15     4     5   ar
    16     5     6   ar
    17     6     7   ar
    18     7     8   ar
    19     8     9   ar
    20     9    28    1
    21    28    29    1
    22    29    30    1
    23    29    31    1
    24    31    32    2
    25    31    33   am
    26    33    34    1
    27    33    35    1
    28     9    10   ar
    29    16    17   ar
    30    17    18   ar
    31    18    19    1
    32    25    26   ar
    33    26    27   ar
    34    27    22   ar
    35    18    13   ar
    36    10     1   ar
    37    10     5   ar
    38    11    12    1
@<TRIPOS>MOLECULE
*****
 35 38 0 0 0
SMALL
GASTEIGER

@<TRIPOS>ATOM
      1 C         143.4822  143.3585  158.4967 C.ar    1  UNL1        0.1383
      2 N         144.4093  142.5495  157.6389 N.ar    1  UNL1       -0.2088
      3 C         144.2328  142.5361  156.1494 C.ar    1  UNL1        0.2000
      4 N         143.1293  143.3319  155.5177 N.ar    1  UNL1       -0.2238
      5 C         142.2022  144.1409  156.3756 C.ar    1  UNL1        0.0887
      6 C         141.0986  144.9366  155.7439 C.ar    1  UNL1        0.0195
      7 C         140.1716  145.7457  156.6017 C.ar    1  UNL1        0.0047
      8 C         140.3480  145.7591  158.0913 C.ar    1  UNL1        0.0371
      9 C         141.4516  144.9633  158.7230 C.ar    1  UNL1        0.1432
     10 C         142.3787  144.1543  157.8650 C.ar    1  UNL1        0.0833
     11 N         143.6587  143.3719  159.9863 N.pl3   1  UNL1       -0.2978
     12 H         143.9883  144.1835  160.4357 H       1  UNL1        0.1536
     13 C         142.6816  139.7023  162.4007 C.ar    1  UNL1        0.1414
     14 C         141.9035  140.0101  161.1557 C.ar    1  UNL1        0.0384
     15 C         142.2292  141.2333  160.3509 C.ar    1  UNL1        0.0178
     16 C         143.3330  142.1487  160.7911 C.ar    1  UNL1        0.0492
     17 C         144.1110  141.8409  162.0360 C.ar    1  UNL1        0.0134
     18 C         143.7853  140.6177  162.8408 C.ar    1  UNL1        0.0139
     19 C         144.5634  140.3099  164.0858 C.3     1  UNL1        0.0343
     20 O         142.3559  138.4791  163.2055 O.3     1  UNL1       -0.4522
     21 C         137.6577  138.5065  166.9373 C.3     1  UNL1        0.0521
     22 C         138.8322  138.4997  166.0044 C.ar    1  UNL1        0.0596
     23 C         139.9959  139.4120  166.2568 C.ar    1  UNL1        0.0179
     24 C         141.1704  139.4051  165.3238 C.ar    1  UNL1        0.0403
     25 C         141.1813  138.4860  164.1384 C.ar    1  UNL1        0.1643
     26 C         140.0177  137.5737  163.8860 C.ar    1  UNL1        0.1358
     27 N         138.8431  137.5806  164.8190 N.ar    1  UNL1       -0.2449
     28 O         141.6281  144.9767  160.2125 O.3     1  UNL1       -0.4698
     29 C         140.4264  144.9664  161.1102 C.3     1  UNL1        0.2413
     30 C         139.9911  146.2279  161.7952 C.3     1  UNL1        0.0574
     31 C         139.6600  143.6946  161.3230 C.2     1  UNL1        0.2660
     32 O         138.6194  143.2708  160.3292 O.2     1  UNL1       -0.2710
     33 N         139.9342  142.8467  162.5295 N.am    1  UNL1       -0.2731
     34 C         139.1679  141.5749  162.7423 C.3     1  UNL1        0.1150
     35 C         140.9748  143.2705  163.5232 C.3     1  UNL1        0.1150
@<TRIPOS>BOND
     1    21    22    1
     2    22    23   ar
     3    23    24   ar
     4    24    25   ar
     5    25    20    1
     6    20    13    1
     7    13    14   ar
     8    14    15   ar
     9    15    16   ar
    10    16    11    1
    11    11     1    1
    12     1     2   ar
    13     2     3   ar
    14     3     4   ar
    15     4     5   ar
    16     5     6   ar
    17     6     7   ar
    18     7     8   ar
    19     8     9   ar
    20     9    28    1
    21    28    29    1
    22    29    30    1
    23    29    31    1
    24    31    32    2
    25    31    33   am
    26    33    34    1
    27    33    35    1
    28     9    10   ar
    29    16    17   ar
    30    17    18   ar
    31    18    19    1
    32    25    26   ar
    33    26    27   ar
    34    27    22   ar
    35    18    13   ar
    36    10     1   ar
    37    10     5   ar
    38    11    12    1
@<TRIPOS>MOLECULE
*****
 35 38 0 0 0
SMALL
GASTEIGER

@<TRIPOS>ATOM
      1 C         138.9889  141.0569  159.9316 C.ar    1  UNL1        0.1383
      2 N         139.0072  139.6672  159.3673 N.ar    1  UNL1       -0.2088
      3 C         139.6183  139.4123  158.0214 C.ar    1  UNL1        0.2000
      4 N         140.2111  140.5471  157.2398 N.ar    1  UNL1       -0.2238
      5 C         140.1929  141.9367  157.8042 C.ar    1  UNL1        0.0887
      6 C         140.7857  143.0715  157.0226 C.ar    1  UNL1        0.0195
      7 C         140.7675  144.4611  157.5869 C.ar    1  UNL1        0.0047
      8 C         140.1563  144.7161  158.9329 C.ar    1  UNL1        0.0371
      9 C         139.5635  143.5813  159.7145 C.ar    1  UNL1        0.1432
     10 C         139.5818  142.1916  159.1501 C.ar    1  UNL1        0.0833
     11 N         138.3778  141.3118  161.2776 N.pl3   1  UNL1       -0.2978
     12 H         137.5373  141.8195  161.3484 H       1  UNL1        0.1536
     13 C         140.3863  139.7559  164.9918 C.ar    1  UNL1        0.1414
     14 C         141.2137  140.2100  163.8259 C.ar    1  UNL1        0.0384
     15 C         140.5442  140.7287  162.5878 C.ar    1  UNL1        0.0178
     16 C         139.0473  140.7932  162.5157 C.ar    1  UNL1        0.0492
     17 C         138.2200  140.3390  163.6815 C.ar    1  UNL1        0.0134
     18 C         138.8895  139.8204  164.9196 C.ar    1  UNL1        0.0139
     19 C         138.0621  139.3662  166.0854 C.3     1  UNL1        0.0343
     20 O         141.0558  139.2372  166.2298 O.3     1  UNL1       -0.4522
     21 C         142.8556  143.0577  170.4918 C.3     1  UNL1        0.0521
     22 C         142.4056  142.1026  169.4263 C.ar    1  UNL1        0.0596
     23 C         143.0511  142.1308  168.0726 C.ar    1  UNL1        0.0179
     24 C         142.6012  141.1757  167.0071 C.ar    1  UNL1        0.0403
     25 C         141.5057  140.1923  167.2953 C.ar    1  UNL1        0.1643
     26 C         140.8603  140.1641  168.6490 C.ar    1  UNL1        0.1358
     27 N         141.3102  141.1193  169.7145 N.ar    1  UNL1       -0.2449
     28 O         138.9524  143.8362  161.0604 O.3     1  UNL1       -0.4698
     29 C         139.6259  144.7657  162.0261 C.3     1  UNL1        0.2413
     30 C         139.7062  146.2325  161.7231 C.3     1  UNL1        0.0574
     31 C         140.2190  144.2282  163.2947 C.2     1  UNL1        0.2660
     32 O         141.6968  143.9886  163.3890 O.2     1  UNL1       -0.2710
     33 N         139.3345  143.9305  164.4689 N.am    1  UNL1       -0.2731
     34 C         139.9276  143.3930  165.7375 C.3     1  UNL1        0.1150
     35 C         137.8568  144.1702  164.3745 C.3     1  UNL1        0.1150
@<TRIPOS>BOND
     1    21    22    1
     2    22    23   ar
     3    23    24   ar
     4    24    25   ar
     5    25    20    1
     6    20    13    1
     7    13    14   ar
     8    14    15   ar
     9    15    16   ar
    10    16    11    1
    11    11     1    1
    12     1     2   ar
    13     2     3   ar
    14     3     4   ar
    15     4     5   ar
    16     5     6   ar
    17     6     7   ar
    18     7     8   ar
    19     8     9   ar
    20     9    28    1
    21    28    29    1
    22    29    30    1
    23    29    31    1
    24    31    32    2
    25    31    33   am
    26    33    34    1
    27    33    35    1
    28     9    10   ar
    29    16    17   ar
    30    17    18   ar
    31    18    19    1
    32    25    26   ar
    33    26    27   ar
    34    27    22   ar
    35    18    13   ar
    36    10     1   ar
    37    10     5   ar
    38    11    12    1
@<TRIPOS>MOLECULE
*****
 35 38 0 0 0
SMALL
GASTEIGER

@<TRIPOS>ATOM
      1 C         141.3192  139.4435  158.2486 C.ar    1  UNL1        0.1383
      2 N         141.3594  137.9998  157.8436 N.ar    1  UNL1       -0.2088
      3 C         142.5506  137.4598  157.1092 C.ar    1  UNL1        0.2000
      4 N         143.7016  138.3635  156.7797 N.ar    1  UNL1       -0.2238
      5 C         143.6614  139.8072  157.1847 C.ar    1  UNL1        0.0887
      6 C         144.8124  140.7109  156.8552 C.ar    1  UNL1        0.0195
      7 C         144.7722  142.1546  157.2601 C.ar    1  UNL1        0.0047
      8 C         143.5810  142.6947  157.9946 C.ar    1  UNL1        0.0371
      9 C         142.4300  141.7910  158.3241 C.ar    1  UNL1        0.1432
     10 C         142.4702  140.3472  157.9191 C.ar    1  UNL1        0.0833
     11 N         140.1280  139.9836  158.9831 N.pl3   1  UNL1       -0.2978
     12 H         139.6101  140.7285  158.6008 H       1  UNL1        0.1536
     13 C         138.9216  138.1989  162.9339 C.ar    1  UNL1        0.1414
     14 C         137.9466  139.0361  162.1602 C.ar    1  UNL1        0.0384
     15 C         138.3488  139.6310  160.8432 C.ar    1  UNL1        0.0178
     16 C         139.7259  139.3887  160.3000 C.ar    1  UNL1        0.0492
     17 C         140.7007  138.5515  161.0738 C.ar    1  UNL1        0.0134
     18 C         140.2986  137.9566  162.3907 C.ar    1  UNL1        0.0139
     19 C         141.2736  137.1194  163.1645 C.3     1  UNL1        0.0343
     20 O         138.5195  137.6039  164.2509 O.3     1  UNL1       -0.4522
     21 C         139.4371  140.6632  169.3301 C.3     1  UNL1        0.0521
     22 C         139.2077  139.8984  168.0603 C.ar    1  UNL1        0.0596
     23 C         140.1163  140.1062  166.8850 C.ar    1  UNL1        0.0179
     24 C         139.8869  139.3414  165.6152 C.ar    1  UNL1        0.0403
     25 C         138.7489  138.3687  165.5207 C.ar    1  UNL1        0.1643
     26 C         137.8402  138.1610  166.6959 C.ar    1  UNL1        0.1358
     27 N         138.0697  138.9259  167.9657 N.ar    1  UNL1       -0.2449
     28 O         141.2388  142.3310  159.0585 O.3     1  UNL1       -0.4698
     29 C         141.4158  142.9834  160.3977 C.3     1  UNL1        0.2413
     30 C         141.9401  142.1877  161.5561 C.3     1  UNL1        0.0574
     31 C         141.0683  144.4314  160.5783 C.2     1  UNL1        0.2660
     32 O         141.8174  145.4832  159.8150 O.2     1  UNL1       -0.2710
     33 N         139.9719  144.8275  161.5221 N.am    1  UNL1       -0.2731
     34 C         139.6245  146.2755  161.7027 C.3     1  UNL1        0.1150
     35 C         139.2229  143.7757  162.2854 C.3     1  UNL1        0.1150
@<TRIPOS>BOND
     1    21    22    1
     2    22    23   ar
     3    23    24   ar
     4    24    25   ar
     5    25    20    1
     6    20    13    1
     7    13    14   ar
     8    14    15   ar
     9    15    16   ar
    10    16    11    1
    11    11     1    1
    12     1     2   ar
    13     2     3   ar
    14     3     4   ar
    15     4     5   ar
    16     5     6   ar
    17     6     7   ar
    18     7     8   ar
    19     8     9   ar
    20     9    28    1
    21    28    29    1
    22    29    30    1
    23    29    31    1
    24    31    32    2
    25    31    33   am
    26    33    34    1
    27    33    35    1
    28     9    10   ar
    29    16    17   ar
    30    17    18   ar
    31    18    19    1
    32    25    26   ar
    33    26    27   ar
    34    27    22   ar
    35    18    13   ar
    36    10     1   ar
    37    10     5   ar
    38    11    12    1
@<TRIPOS>MOLECULE
*****
 35 38 0 0 0
SMALL
GASTEIGER

@<TRIPOS>ATOM
      1 C         142.8823  143.6736  162.8890 C.ar    1  UNL1        0.1383
      2 N         144.2378  143.3501  162.3342 N.ar    1  UNL1       -0.2088
      3 C         145.1856  142.4943  163.1211 C.ar    1  UNL1        0.2000
      4 N         144.7777  141.9619  164.4628 N.ar    1  UNL1       -0.2238
      5 C         143.4222  142.2854  165.0177 C.ar    1  UNL1        0.0887
      6 C         143.0144  141.7530  166.3594 C.ar    1  UNL1        0.0195
      7 C         141.6589  142.0765  166.9142 C.ar    1  UNL1        0.0047
      8 C         140.7111  142.9324  166.1273 C.ar    1  UNL1        0.0371
      9 C         141.1189  143.4647  164.7855 C.ar    1  UNL1        0.1432
     10 C         142.4745  143.1412  164.2307 C.ar    1  UNL1        0.0833
     11 N         141.9345  144.5295  162.1021 N.pl3   1  UNL1       -0.2978
     12 H         141.6295  145.3910  162.4682 H       1  UNL1        0.1536
     13 C         140.4856  143.1593  158.0681 C.ar    1  UNL1        0.1414
     14 C         140.9130  142.1514  159.0935 C.ar    1  UNL1        0.0384
     15 C         141.3960  142.6081  160.4382 C.ar    1  UNL1        0.0178
     16 C         141.4515  144.0728  160.7574 C.ar    1  UNL1        0.0492
     17 C         141.0241  145.0806  159.7320 C.ar    1  UNL1        0.0134
     18 C         140.5411  144.6239  158.3873 C.ar    1  UNL1        0.0139
     19 C         140.1137  145.6318  157.3619 C.3     1  UNL1        0.0343
     20 O         140.0026  142.7026  156.7234 O.3     1  UNL1       -0.4522
     21 C         134.4514  140.5083  156.1160 C.3     1  UNL1        0.0521
     22 C         135.8392  141.0569  156.2678 C.ar    1  UNL1        0.0596
     23 C         136.2817  142.2200  155.4304 C.ar    1  UNL1        0.0179
     24 C         137.6695  142.7686  155.5822 C.ar    1  UNL1        0.0403
     25 C         138.6148  142.1540  156.5716 C.ar    1  UNL1        0.1643
     26 C         138.1723  140.9909  157.4090 C.ar    1  UNL1        0.1358
     27 N         136.7845  140.4423  157.2571 N.ar    1  UNL1       -0.2449
     28 O         140.1712  144.3206  163.9986 O.3     1  UNL1       -0.4698
     29 C         138.7389  143.9037  163.8405 C.3     1  UNL1        0.2413
     30 C         137.7114  144.3585  164.8341 C.3     1  UNL1        0.0574
     31 C         138.3343  143.0321  162.6887 C.2     1  UNL1        0.2660
     32 O         138.1294  143.6326  161.3295 O.2     1  UNL1       -0.2710
     33 N         138.1347  141.5600  162.8962 N.am    1  UNL1       -0.2731
     34 C         137.7301  140.6883  161.7444 C.3     1  UNL1        0.1150
     35 C         138.3396  140.9596  164.2554 C.3     1  UNL1        0.1150
@<TRIPOS>BOND
     1    21    22    1
     2    22    23   ar
     3    23    24   ar
     4    24    25   ar
     5    25    20    1
     6    20    13    1
     7    13    14   ar
     8    14    15   ar
     9    15    16   ar
    10    16    11    1
    11    11     1    1
    12     1     2   ar
    13     2     3   ar
    14     3     4   ar
    15     4     5   ar
    16     5     6   ar
    17     6     7   ar
    18     7     8   ar
    19     8     9   ar
    20     9    28    1
    21    28    29    1
    22    29    30    1
    23    29    31    1
    24    31    32    2
    25    31    33   am
    26    33    34    1
    27    33    35    1
    28     9    10   ar
    29    16    17   ar
    30    17    18   ar
    31    18    19    1
    32    25    26   ar
    33    26    27   ar
    34    27    22   ar
    35    18    13   ar
    36    10     1   ar
    37    10     5   ar
    38    11    12    1
@<TRIPOS>MOLECULE
*****
 35 38 0 0 0
SMALL
GASTEIGER

@<TRIPOS>ATOM
      1 C         138.4858  142.5665  162.5731 C.ar    1  UNL1        0.1383
      2 N         138.4588  143.9599  162.0184 N.ar    1  UNL1       -0.2088
      3 C         138.9441  145.1085  162.8520 C.ar    1  UNL1        0.2000
      4 N         139.4565  144.8638  164.2404 N.ar    1  UNL1       -0.2238
      5 C         139.4835  143.4704  164.7952 C.ar    1  UNL1        0.0887
      6 C         139.9958  143.2257  166.1835 C.ar    1  UNL1        0.0195
      7 C         140.0228  141.8323  166.7383 C.ar    1  UNL1        0.0047
      8 C         139.5375  140.6836  165.9046 C.ar    1  UNL1        0.0371
      9 C         139.0251  140.9283  164.5162 C.ar    1  UNL1        0.1432
     10 C         138.9981  142.3218  163.9615 C.ar    1  UNL1        0.0833
     11 N         138.0004  141.4178  161.7394 N.pl3   1  UNL1       -0.2978
     12 H         137.1751  140.9426  161.9889 H       1  UNL1        0.1536
     13 C         140.3171  140.1436  158.0981 C.ar    1  UNL1        0.1414
     14 C         138.8298  139.9544  158.1449 C.ar    1  UNL1        0.0384
     15 C         138.0576  140.3791  159.3587 C.ar    1  UNL1        0.0178
     16 C         138.7727  140.9930  160.5257 C.ar    1  UNL1        0.0492
     17 C         140.2599  141.1822  160.4788 C.ar    1  UNL1        0.0134
     18 C         141.0322  140.7575  159.2650 C.ar    1  UNL1        0.0139
     19 C         142.5195  140.9466  159.2183 C.3     1  UNL1        0.0343
     20 O         141.0894  139.7188  156.8843 O.3     1  UNL1       -0.4522
     21 C         142.4564  133.9336  156.0710 C.3     1  UNL1        0.0521
     22 C         142.1147  135.3799  156.2744 C.ar    1  UNL1        0.0596
     23 C         141.0074  136.0076  155.4807 C.ar    1  UNL1        0.0179
     24 C         140.6656  137.4539  155.6840 C.ar    1  UNL1        0.0403
     25 C         141.4311  138.2725  156.6810 C.ar    1  UNL1        0.1643
     26 C         142.5384  137.6448  157.4747 C.ar    1  UNL1        0.1358
     27 N         142.8802  136.1984  157.2713 N.ar    1  UNL1       -0.2449
     28 O         138.5398  139.7797  163.6826 O.3     1  UNL1       -0.4698
     29 C         139.2940  138.4830  163.6805 C.3     1  UNL1        0.2413
     30 C         139.0754  137.4865  164.7802 C.3     1  UNL1        0.0574
     31 C         140.2668  138.1829  162.5789 C.2     1  UNL1        0.2660
     32 O         139.7685  137.6970  161.2501 O.2     1  UNL1       -0.2710
     33 N         141.7377  138.3688  162.8060 N.am    1  UNL1       -0.2731
     34 C         142.7105  138.0687  161.7043 C.3     1  UNL1        0.1150
     35 C         142.2360  138.8547  164.1347 C.3     1  UNL1        0.1150
@<TRIPOS>BOND
     1    21    22    1
     2    22    23   ar
     3    23    24   ar
     4    24    25   ar
     5    25    20    1
     6    20    13    1
     7    13    14   ar
     8    14    15   ar
     9    15    16   ar
    10    16    11    1
    11    11     1    1
    12     1     2   ar
    13     2     3   ar
    14     3     4   ar
    15     4     5   ar
    16     5     6   ar
    17     6     7   ar
    18     7     8   ar
    19     8     9   ar
    20     9    28    1
    21    28    29    1
    22    29    30    1
    23    29    31    1
    24    31    32    2
    25    31    33   am
    26    33    34    1
    27    33    35    1
    28     9    10   ar
    29    16    17   ar
    30    17    18   ar
    31    18    19    1
    32    25    26   ar
    33    26    27   ar
    34    27    22   ar
    35    18    13   ar
    36    10     1   ar
    37    10     5   ar
    38    11    12    1
