@<TRIPOS>MOLECULE
*****
 19 20 0 0 0
SMALL
GASTEIGER

@<TRIPOS>ATOM
      1 C         138.1723  141.7028  164.4572 C.3     1  UNL1        0.0537
      2 C         138.3467  140.2444  164.7616 C.2     1  UNL1       -0.0463
      3 C         138.0369  139.7222  166.1332 C.2     1  UNL1       -0.0345
      4 C         138.2113  138.2638  166.4376 C.3     1  UNL1        0.0254
      5 C         138.6955  137.3275  165.3703 C.3     1  UNL1        0.0049
      6 C         139.0052  137.8497  163.9987 C.3     1  UNL1        0.0044
      7 C         138.8308  139.3081  163.6944 C.3     1  UNL1        0.0181
      8 C         138.5211  138.7859  165.0660 C.3     1  UNL1        0.0038
      9 C         138.1789  139.0340  166.0745 C.3     1  UNL1        0.0003
     10 C         138.2288  139.7648  165.4561 C.3     1  UNL1        0.0003
     11 C         139.3234  142.4993  163.9184 C.3     1  UNL1        0.1465
     12 O         140.2638  143.1903  164.8608 O.3     1  UNL1       -0.3519
     13 C         140.1247  142.9891  166.3408 C.3     1  UNL1        0.1594
     14 C         141.2303  142.3361  167.1162 C.3     1  UNL1        0.1046
     15 N         141.4035  140.8470  167.0661 N.3     1  UNL1       -0.2706
     16 C         139.9187  140.3958  169.1498 C.3     1  UNL1        0.0188
     17 C         141.0689  140.0122  168.2665 C.3     1  UNL1        0.0722
     18 C         141.9115  140.1927  165.8155 C.3     1  UNL1        0.0722
     19 C         142.1960  138.7200  165.8020 C.3     1  UNL1        0.0188
@<TRIPOS>BOND
     1    16    17    1
     2    17    15    1
     3    15    18    1
     4    18    19    1
     5    15    14    1
     6    14    13    1
     7    13    12    1
     8    12    11    1
     9    11     1    1
    10     1     2    1
    11     2     3    2
    12     3     4    1
    13     4     5    1
    14     5     6    1
    15     6     7    1
    16     7     8    1
    17     8     9    1
    18     8    10    1
    19     7     2    1
    20     8     5    1
@<TRIPOS>MOLECULE
*****
 19 20 0 0 0
SMALL
GASTEIGER

@<TRIPOS>ATOM
      1 C         138.3617  137.5076  165.8712 C.3     1  UNL1        0.0537
      2 C         139.2430  137.5965  164.6607 C.2     1  UNL1       -0.0463
      3 C         140.7142  137.3308  164.7829 C.2     1  UNL1       -0.0345
      4 C         141.5955  137.4197  163.5723 C.3     1  UNL1        0.0254
      5 C         141.0056  137.7742  162.2396 C.3     1  UNL1        0.0049
      6 C         139.5344  138.0399  162.1174 C.3     1  UNL1        0.0044
      7 C         138.6531  137.9511  163.3279 C.3     1  UNL1        0.0181
      8 C         140.1243  137.6854  163.4501 C.3     1  UNL1        0.0038
      9 C         140.9448  137.4204  164.1226 C.3     1  UNL1        0.0003
     10 C         140.0768  137.4856  164.5241 C.3     1  UNL1        0.0003
     11 C         137.9135  138.7590  166.5661 C.3     1  UNL1        0.1465
     12 O         138.5705  139.1824  167.8464 O.3     1  UNL1       -0.3519
     13 C         139.7297  140.1339  167.8156 C.3     1  UNL1        0.1594
     14 C         140.1317  140.7848  166.5253 C.3     1  UNL1        0.1046
     15 N         141.5401  140.6540  166.0262 N.3     1  UNL1       -0.2706
     16 C         140.7599  141.3204  163.6393 C.3     1  UNL1        0.0188
     17 C         141.8615  140.9719  164.5959 C.3     1  UNL1        0.0722
     18 C         142.6272  140.2054  166.9573 C.3     1  UNL1        0.0722
     19 C         143.1888  138.8193  166.8420 C.3     1  UNL1        0.0188
@<TRIPOS>BOND
     1    16    17    1
     2    17    15    1
     3    15    18    1
     4    18    19    1
     5    15    14    1
     6    14    13    1
     7    13    12    1
     8    12    11    1
     9    11     1    1
    10     1     2    1
    11     2     3    2
    12     3     4    1
    13     4     5    1
    14     5     6    1
    15     6     7    1
    16     7     8    1
    17     8     9    1
    18     8    10    1
    19     7     2    1
    20     8     5    1
@<TRIPOS>MOLECULE
*****
 19 20 0 0 0
SMALL
GASTEIGER

@<TRIPOS>ATOM
      1 C         137.3503  141.3878  162.8946 C.3     1  UNL1        0.0537
      2 C         137.9703  140.2336  163.6250 C.2     1  UNL1       -0.0463
      3 C         138.1520  140.2979  165.1126 C.2     1  UNL1       -0.0345
      4 C         138.7719  139.1437  165.8430 C.3     1  UNL1        0.0254
      5 C         139.2102  137.9252  165.0859 C.3     1  UNL1        0.0049
      6 C         139.0285  137.8610  163.5983 C.3     1  UNL1        0.0044
      7 C         138.4085  139.0151  162.8679 C.3     1  UNL1        0.0181
      8 C         138.5902  139.0794  164.3555 C.3     1  UNL1        0.0038
      9 C         138.4510  139.6767  165.2607 C.3     1  UNL1        0.0003
     10 C         138.1552  140.0788  164.4424 C.3     1  UNL1        0.0003
     11 C         138.1666  142.1846  161.9207 C.3     1  UNL1        0.1465
     12 O         138.2417  143.6772  162.0497 O.3     1  UNL1       -0.3519
     13 C         137.8873  144.3364  163.3497 C.3     1  UNL1        0.1594
     14 C         138.9705  144.7419  164.3048 C.3     1  UNL1        0.1046
     15 N         140.3748  144.2579  164.0956 N.3     1  UNL1       -0.2706
     16 C         142.7613  145.2400  163.7952 C.3     1  UNL1        0.0188
     17 C         141.3474  145.0925  163.3162 C.3     1  UNL1        0.0722
     18 C         140.8064  142.9393  164.6657 C.3     1  UNL1        0.0722
     19 C         141.3177  141.8607  163.7573 C.3     1  UNL1        0.0188
@<TRIPOS>BOND
     1    16    17    1
     2    17    15    1
     3    15    18    1
     4    18    19    1
     5    15    14    1
     6    14    13    1
     7    13    12    1
     8    12    11    1
     9    11     1    1
    10     1     2    1
    11     2     3    2
    12     3     4    1
    13     4     5    1
    14     5     6    1
    15     6     7    1
    16     7     8    1
    17     8     9    1
    18     8    10    1
    19     7     2    1
    20     8     5    1
@<TRIPOS>MOLECULE
*****
 19 20 0 0 0
SMALL
GASTEIGER

@<TRIPOS>ATOM
      1 C         154.1734  132.9396  163.1652 C.3     1  UNL1        0.0537
      2 C         154.3162  134.0841  164.1241 C.2     1  UNL1       -0.0463
      3 C         154.4058  135.4893  163.6069 C.2     1  UNL1       -0.0345
      4 C         154.5486  136.6338  164.5658 C.3     1  UNL1        0.0254
      5 C         154.6019  136.3733  166.0420 C.3     1  UNL1        0.0049
      6 C         154.5123  134.9682  166.5593 C.3     1  UNL1        0.0044
      7 C         154.3695  133.8236  165.6003 C.3     1  UNL1        0.0181
      8 C         154.4591  135.2287  165.0831 C.3     1  UNL1        0.0038
      9 C         154.4670  135.8698  164.1973 C.3     1  UNL1        0.0003
     10 C         154.3813  134.9291  164.0343 C.3     1  UNL1        0.0003
     11 C         155.1313  131.7869  163.2251 C.3     1  UNL1        0.1465
     12 O         154.7050  130.4888  163.8442 O.3     1  UNL1       -0.3519
     13 C         154.9003  130.2589  165.3136 C.3     1  UNL1        0.1594
     14 C         154.9277  128.8610  165.8568 C.3     1  UNL1        0.1046
     15 N         153.6455  128.1085  166.0558 N.3     1  UNL1       -0.2706
     16 C         152.2867  127.9930  163.8444 C.3     1  UNL1        0.0188
     17 C         153.0633  127.3073  164.9292 C.3     1  UNL1        0.0722
     18 C         152.9453  128.1570  167.3816 C.3     1  UNL1        0.0722
     19 C         151.5196  127.7044  167.4938 C.3     1  UNL1        0.0188
@<TRIPOS>BOND
     1    16    17    1
     2    17    15    1
     3    15    18    1
     4    18    19    1
     5    15    14    1
     6    14    13    1
     7    13    12    1
     8    12    11    1
     9    11     1    1
    10     1     2    1
    11     2     3    2
    12     3     4    1
    13     4     5    1
    14     5     6    1
    15     6     7    1
    16     7     8    1
    17     8     9    1
    18     8    10    1
    19     7     2    1
    20     8     5    1
@<TRIPOS>MOLECULE
*****
 19 20 0 0 0
SMALL
GASTEIGER

@<TRIPOS>ATOM
      1 C         137.9297  141.8207  164.3708 C.3     1  UNL1        0.0537
      2 C         138.2402  140.3758  164.6274 C.2     1  UNL1       -0.0463
      3 C         138.1020  139.8132  166.0110 C.2     1  UNL1       -0.0345
      4 C         138.4125  138.3683  166.2676 C.3     1  UNL1        0.0254
      5 C         138.8613  137.4861  165.1406 C.3     1  UNL1        0.0049
      6 C         138.9996  138.0487  163.7570 C.3     1  UNL1        0.0044
      7 C         138.6890  139.4936  163.5004 C.3     1  UNL1        0.0181
      8 C         138.5508  138.9310  164.8840 C.3     1  UNL1        0.0038
      9 C         138.2885  139.1387  165.9250 C.3     1  UNL1        0.0003
     10 C         138.2249  139.8794  165.3198 C.3     1  UNL1        0.0003
     11 C         139.0405  142.8266  164.3063 C.3     1  UNL1        0.1465
     12 O         140.1493  142.6567  163.3105 O.3     1  UNL1       -0.3519
     13 C         141.5414  142.3567  163.7820 C.3     1  UNL1        0.1594
     14 C         141.8760  140.9944  164.3132 C.3     1  UNL1        0.1046
     15 N         141.8731  140.7446  165.7923 N.3     1  UNL1       -0.2706
     16 C         142.4733  138.2457  165.4111 C.3     1  UNL1        0.0188
     17 C         142.0040  139.3455  166.3169 C.3     1  UNL1        0.0722
     18 C         141.7391  141.8940  166.7468 C.3     1  UNL1        0.0722
     19 C         140.5215  142.0099  167.6150 C.3     1  UNL1        0.0188
@<TRIPOS>BOND
     1    16    17    1
     2    17    15    1
     3    15    18    1
     4    18    19    1
     5    15    14    1
     6    14    13    1
     7    13    12    1
     8    12    11    1
     9    11     1    1
    10     1     2    1
    11     2     3    2
    12     3     4    1
    13     4     5    1
    14     5     6    1
    15     6     7    1
    16     7     8    1
    17     8     9    1
    18     8    10    1
    19     7     2    1
    20     8     5    1
@<TRIPOS>MOLECULE
*****
 19 20 0 0 0
SMALL
GASTEIGER

@<TRIPOS>ATOM
      1 C         140.3514  141.7769  166.4948 C.3     1  UNL1        0.0537
      2 C         141.0388  142.2391  167.7454 C.2     1  UNL1       -0.0463
      3 C         140.2978  143.0814  168.7410 C.2     1  UNL1       -0.0345
      4 C         140.9853  143.5435  169.9916 C.3     1  UNL1        0.0254
      5 C         142.4137  143.1634  170.2464 C.3     1  UNL1        0.0049
      6 C         143.1547  142.3211  169.2508 C.3     1  UNL1        0.0044
      7 C         142.4673  141.8590  168.0002 C.3     1  UNL1        0.0181
      8 C         141.7263  142.7012  168.9959 C.3     1  UNL1        0.0038
      9 C         140.7804  143.1910  169.2433 C.3     1  UNL1        0.0003
     10 C         140.8002  142.7097  168.4145 C.3     1  UNL1        0.0003
     11 C         141.1185  141.0149  165.4552 C.3     1  UNL1        0.1465
     12 O         140.5899  140.9171  164.0548 O.3     1  UNL1       -0.3519
     13 C         139.1195  141.0633  163.7962 C.3     1  UNL1        0.1594
     14 C         138.2397  139.8489  163.7616 C.3     1  UNL1        0.1046
     15 N         138.8016  138.5052  164.1206 N.3     1  UNL1       -0.2706
     16 C         140.9234  137.2231  163.3433 C.3     1  UNL1        0.0188
     17 C         139.5223  137.6929  163.0859 C.3     1  UNL1        0.0722
     18 C         138.6428  137.9739  165.5144 C.3     1  UNL1        0.0722
     19 C         137.9872  138.8164  166.5681 C.3     1  UNL1        0.0188
@<TRIPOS>BOND
     1    16    17    1
     2    17    15    1
     3    15    18    1
     4    18    19    1
     5    15    14    1
     6    14    13    1
     7    13    12    1
     8    12    11    1
     9    11     1    1
    10     1     2    1
    11     2     3    2
    12     3     4    1
    13     4     5    1
    14     5     6    1
    15     6     7    1
    16     7     8    1
    17     8     9    1
    18     8    10    1
    19     7     2    1
    20     8     5    1
@<TRIPOS>MOLECULE
*****
 19 20 0 0 0
SMALL
GASTEIGER

@<TRIPOS>ATOM
      1 C         140.5941  137.3977  164.6288 C.3     1  UNL1        0.0537
      2 C         141.9315  138.0733  164.5595 C.2     1  UNL1       -0.0463
      3 C         142.7832  138.1786  165.7897 C.2     1  UNL1       -0.0345
      4 C         144.1207  138.8541  165.7204 C.3     1  UNL1        0.0254
      5 C         144.6065  139.4243  164.4209 C.3     1  UNL1        0.0049
      6 C         143.7548  139.3190  163.1907 C.3     1  UNL1        0.0044
      7 C         142.4173  138.6435  163.2600 C.3     1  UNL1        0.0181
      8 C         143.2690  138.7488  164.4902 C.3     1  UNL1        0.0038
      9 C         143.3546  138.5192  165.5559 C.3     1  UNL1        0.0003
     10 C         142.5469  138.2311  165.1275 C.3     1  UNL1        0.0003
     11 C         139.4255  137.9694  163.8821 C.3     1  UNL1        0.1465
     12 O         138.3823  138.7608  164.6140 O.3     1  UNL1       -0.3519
     13 C         138.3751  140.2580  164.5218 C.3     1  UNL1        0.1594
     14 C         139.6461  140.9973  164.2255 C.3     1  UNL1        0.1046
     15 N         140.5208  141.4660  165.3504 N.3     1  UNL1       -0.2706
     16 C         142.8405  142.2936  166.1775 C.3     1  UNL1        0.0188
     17 C         141.8744  142.0423  165.0578 C.3     1  UNL1        0.0722
     18 C         140.0418  141.3584  166.7678 C.3     1  UNL1        0.0722
     19 C         140.2197  140.0755  167.5242 C.3     1  UNL1        0.0188
@<TRIPOS>BOND
     1    16    17    1
     2    17    15    1
     3    15    18    1
     4    18    19    1
     5    15    14    1
     6    14    13    1
     7    13    12    1
     8    12    11    1
     9    11     1    1
    10     1     2    1
    11     2     3    2
    12     3     4    1
    13     4     5    1
    14     5     6    1
    15     6     7    1
    16     7     8    1
    17     8     9    1
    18     8    10    1
    19     7     2    1
    20     8     5    1
@<TRIPOS>MOLECULE
*****
 19 20 0 0 0
SMALL
GASTEIGER

@<TRIPOS>ATOM
      1 C         145.5573  140.8690  164.0192 C.3     1  UNL1        0.0537
      2 C         144.9449  142.2358  163.9366 C.2     1  UNL1       -0.0463
      3 C         144.6732  143.0130  165.1905 C.2     1  UNL1       -0.0345
      4 C         144.0609  144.3798  165.1079 C.3     1  UNL1        0.0254
      5 C         143.7202  144.9695  163.7714 C.3     1  UNL1        0.0049
      6 C         143.9919  144.1924  162.5175 C.3     1  UNL1        0.0044
      7 C         144.6043  142.8256  162.6001 C.3     1  UNL1        0.0181
      8 C         144.3326  143.6027  163.8540 C.3     1  UNL1        0.0038
      9 C         144.3927  143.6118  164.9458 C.3     1  UNL1        0.0003
     10 C         144.7189  142.8208  164.5136 C.3     1  UNL1        0.0003
     11 C         144.6818  139.6516  163.9836 C.3     1  UNL1        0.1465
     12 O         143.8048  139.3929  162.7945 O.3     1  UNL1       -0.3519
     13 C         142.3599  139.7947  162.8266 C.3     1  UNL1        0.1594
     14 C         141.6245  139.8458  164.1329 C.3     1  UNL1        0.1046
     15 N         141.4110  141.1606  164.8226 N.3     1  UNL1       -0.2706
     16 C         142.6504  140.3520  166.9580 C.3     1  UNL1        0.0188
     17 C         141.6905  141.2917  166.2904 C.3     1  UNL1        0.0722
     18 C         140.9178  142.3443  164.0443 C.3     1  UNL1        0.0722
     19 C         140.4512  143.5742  164.7651 C.3     1  UNL1        0.0188
@<TRIPOS>BOND
     1    16    17    1
     2    17    15    1
     3    15    18    1
     4    18    19    1
     5    15    14    1
     6    14    13    1
     7    13    12    1
     8    12    11    1
     9    11     1    1
    10     1     2    1
    11     2     3    2
    12     3     4    1
    13     4     5    1
    14     5     6    1
    15     6     7    1
    16     7     8    1
    17     8     9    1
    18     8    10    1
    19     7     2    1
    20     8     5    1
@<TRIPOS>MOLECULE
*****
 19 20 0 0 0
SMALL
GASTEIGER

@<TRIPOS>ATOM
      1 C         154.0999  132.7812  163.4151 C.3     1  UNL1        0.0537
      2 C         154.2756  134.0882  164.1299 C.2     1  UNL1       -0.0463
      3 C         154.3882  134.1159  165.6253 C.2     1  UNL1       -0.0345
      4 C         154.5639  135.4229  166.3401 C.3     1  UNL1        0.0254
      5 C         154.6269  136.7022  165.5594 C.3     1  UNL1        0.0049
      6 C         154.5142  136.6744  164.0640 C.3     1  UNL1        0.0044
      7 C         154.3385  135.3674  163.3492 C.3     1  UNL1        0.0181
      8 C         154.4512  135.3952  164.8446 C.3     1  UNL1        0.0038
      9 C         154.4632  134.8032  165.7640 C.3     1  UNL1        0.0003
     10 C         154.3568  134.3107  164.9484 C.3     1  UNL1        0.0003
     11 C         155.2946  131.9276  163.1085 C.3     1  UNL1        0.1465
     12 O         155.7902  130.9392  164.1222 O.3     1  UNL1       -0.3519
     13 C         154.8375  130.3404  165.1141 C.3     1  UNL1        0.1594
     14 C         154.4551  128.8939  165.0077 C.3     1  UNL1        0.1046
     15 N         153.2770  128.4891  164.1722 N.3     1  UNL1       -0.2706
     16 C         150.9387  127.3724  163.9836 C.3     1  UNL1        0.0188
     17 C         152.1830  127.6562  164.7718 C.3     1  UNL1        0.0722
     18 C         153.1928  128.9171  162.7370 C.3     1  UNL1        0.0722
     19 C         154.2954  128.5642  161.7832 C.3     1  UNL1        0.0188
@<TRIPOS>BOND
     1    16    17    1
     2    17    15    1
     3    15    18    1
     4    18    19    1
     5    15    14    1
     6    14    13    1
     7    13    12    1
     8    12    11    1
     9    11     1    1
    10     1     2    1
    11     2     3    2
    12     3     4    1
    13     4     5    1
    14     5     6    1
    15     6     7    1
    16     7     8    1
    17     8     9    1
    18     8    10    1
    19     7     2    1
    20     8     5    1
