@<TRIPOS>MOLECULE
*****
 30 34 0 0 0
SMALL
GASTEIGER

@<TRIPOS>ATOM
      1 C         141.5807  143.4099  162.8814 C.ar    1  UNL1        0.0884
      2 C         142.8809  143.7846  163.5286 C.ar    1  UNL1        0.0197
      3 C         143.3482  143.0529  164.7517 C.ar    1  UNL1        0.0030
      4 C         142.5152  141.9465  165.3278 C.ar    1  UNL1        0.0174
      5 C         142.9826  141.2148  166.5510 C.ar    1  UNL1       -0.0027
      6 C         142.1496  140.1083  167.1271 C.ar    1  UNL1       -0.0207
      7 C         140.8493  139.7335  166.4799 C.ar    1  UNL1       -0.0027
      8 C         140.3820  140.4652  165.2567 C.ar    1  UNL1        0.0188
      9 C         141.2150  141.5717  164.6807 C.ar    1  UNL1        0.0812
     10 N         140.7477  142.3034  163.4575 N.ar    1  UNL1       -0.2448
     11 C         139.0641  145.4820  162.7300 C.3     1  UNL1        0.0527
     12 C         139.9566  145.0940  161.5886 C.ar    1  UNL1        0.0674
     13 N         139.8491  145.5904  160.1772 N.ar    1  UNL1       -0.2426
     14 C         140.9394  144.9446  159.3744 C.ar    1  UNL1        0.1105
     15 S         141.7207  144.0493  160.2897 S.2     1  UNL1       -0.0653
     16 C         141.1134  144.1416  161.6582 C.ar    1  UNL1        0.0620
     17 C         141.2022  145.1571  157.9130 C.ar    1  UNL1        0.0269
     18 C         142.2741  144.3680  157.2213 C.ar    1  UNL1        0.0227
     19 C         142.5369  144.5804  155.7598 C.ar    1  UNL1        0.0989
     20 N         141.7278  145.5819  154.9901 N.ar    1  UNL1       -0.2423
     21 C         140.6559  146.3709  155.6819 C.ar    1  UNL1        0.0989
     22 C         140.3931  146.1585  157.1433 C.ar    1  UNL1        0.0227
     23 C         142.6168  139.3766  168.3503 C.3     1  UNL1        0.0437
     24 C         142.4664  140.0055  169.7038 C.3     1  UNL1        0.0768
     25 N         141.7437  141.3121  169.8475 N.3     1  UNL1       -0.2737
     26 C         142.3819  142.6648  169.9614 C.3     1  UNL1        0.0721
     27 C         141.2886  143.6841  170.0869 C.3     1  UNL1        0.0187
     28 C         139.9747  142.9613  170.0504 C.3     1  UNL1        0.0174
     29 C         140.2560  141.4953  169.9025 C.3     1  UNL1        0.0576
     30 C         139.2297  140.4043  169.8234 C.3     1  UNL1        0.0173
@<TRIPOS>BOND
     1    11    12    1
     2    12    13   ar
     3    13    14   ar
     4    14    17    1
     5    17    18   ar
     6    18    19   ar
     7    19    20   ar
     8    20    21   ar
     9    21    22   ar
    10    14    15   ar
    11    15    16   ar
    12    16     1    1
    13     1     2   ar
    14     2     3   ar
    15     3     4   ar
    16     4     5   ar
    17     5     6   ar
    18     6    23    1
    19    23    24    1
    20    24    25    1
    21    25    26    1
    22    26    27    1
    23    27    28    1
    24    28    29    1
    25    29    30    1
    26     6     7   ar
    27     7     8   ar
    28     8     9   ar
    29     9    10   ar
    30    16    12   ar
    31    10     1   ar
    32    22    17   ar
    33     9     4   ar
    34    29    25    1
@<TRIPOS>MOLECULE
*****
 30 34 0 0 0
SMALL
GASTEIGER

@<TRIPOS>ATOM
      1 C         141.7006  138.5443  159.4210 C.ar    1  UNL1        0.0884
      2 C         140.2149  138.6284  159.2321 C.ar    1  UNL1        0.0197
      3 C         139.2976  138.4246  160.4013 C.ar    1  UNL1        0.0030
      4 C         139.8659  138.1367  161.7592 C.ar    1  UNL1        0.0174
      5 C         138.9485  137.9328  162.9284 C.ar    1  UNL1       -0.0027
      6 C         139.5168  137.6449  164.2864 C.ar    1  UNL1       -0.0207
      7 C         141.0025  137.5608  164.4752 C.ar    1  UNL1       -0.0027
      8 C         141.9199  137.7646  163.3061 C.ar    1  UNL1        0.0188
      9 C         141.3516  138.0525  161.9481 C.ar    1  UNL1        0.0812
     10 N         142.2689  138.2564  160.7790 N.ar    1  UNL1       -0.2448
     11 C         142.1352  136.4702  156.9393 C.3     1  UNL1        0.0527
     12 C         142.8178  137.7948  157.1111 C.ar    1  UNL1        0.0674
     13 N         143.8199  138.3985  156.1725 N.ar    1  UNL1       -0.2426
     14 C         144.2395  139.7251  156.7330 C.ar    1  UNL1        0.1105
     15 S         143.4967  139.9412  158.0181 S.2     1  UNL1       -0.0653
     16 C         142.6180  138.7481  158.2518 C.ar    1  UNL1        0.0620
     17 C         145.2284  140.6698  156.1167 C.ar    1  UNL1        0.0269
     18 C         145.8589  141.7451  156.9510 C.ar    1  UNL1        0.0227
     19 C         146.8477  142.6897  156.3347 C.ar    1  UNL1        0.0989
     20 N         147.2060  142.5590  154.8840 N.ar    1  UNL1       -0.2423
     21 C         146.5755  141.4836  154.0496 C.ar    1  UNL1        0.0989
     22 C         145.5867  140.5390  154.6660 C.ar    1  UNL1        0.0227
     23 C         138.5995  137.4411  165.4555 C.3     1  UNL1        0.0437
     24 C         138.0983  138.6235  166.2307 C.3     1  UNL1        0.0768
     25 N         138.9645  139.8377  166.3899 N.3     1  UNL1       -0.2737
     26 C         139.9819  140.0596  167.4696 C.3     1  UNL1        0.0721
     27 C         140.6115  141.4023  167.2443 C.3     1  UNL1        0.0187
     28 C         139.9832  142.0102  166.0254 C.3     1  UNL1        0.0174
     29 C         138.9653  141.0432  165.4974 C.3     1  UNL1        0.0576
     30 C         138.1002  141.2462  164.2890 C.3     1  UNL1        0.0173
@<TRIPOS>BOND
     1    11    12    1
     2    12    13   ar
     3    13    14   ar
     4    14    17    1
     5    17    18   ar
     6    18    19   ar
     7    19    20   ar
     8    20    21   ar
     9    21    22   ar
    10    14    15   ar
    11    15    16   ar
    12    16     1    1
    13     1     2   ar
    14     2     3   ar
    15     3     4   ar
    16     4     5   ar
    17     5     6   ar
    18     6    23    1
    19    23    24    1
    20    24    25    1
    21    25    26    1
    22    26    27    1
    23    27    28    1
    24    28    29    1
    25    29    30    1
    26     6     7   ar
    27     7     8   ar
    28     8     9   ar
    29     9    10   ar
    30    16    12   ar
    31    10     1   ar
    32    22    17   ar
    33     9     4   ar
    34    29    25    1
@<TRIPOS>MOLECULE
*****
 30 34 0 0 0
SMALL
GASTEIGER

@<TRIPOS>ATOM
      1 C         142.4955  140.0057  163.4247 C.ar    1  UNL1        0.0884
      2 C         143.5291  138.9360  163.2321 C.ar    1  UNL1        0.0197
      3 C         143.6200  138.2077  161.9239 C.ar    1  UNL1        0.0030
      4 C         142.6772  138.5493  160.8083 C.ar    1  UNL1        0.0174
      5 C         142.7682  137.8210  159.5001 C.ar    1  UNL1       -0.0027
      6 C         141.8254  138.1625  158.3845 C.ar    1  UNL1       -0.0207
      7 C         140.7917  139.2323  158.5771 C.ar    1  UNL1       -0.0027
      8 C         140.7008  139.9605  159.8853 C.ar    1  UNL1        0.0188
      9 C         141.6436  139.6190  161.0009 C.ar    1  UNL1        0.0812
     10 N         141.5527  140.3472  162.3091 N.ar    1  UNL1       -0.2448
     11 C         144.5814  142.2689  164.5093 C.3     1  UNL1        0.0527
     12 C         143.3633  141.7743  165.2314 C.ar    1  UNL1        0.0674
     13 N         142.8902  142.2330  166.5789 N.ar    1  UNL1       -0.2426
     14 C         141.6389  141.4763  166.9132 C.ar    1  UNL1        0.1105
     15 S         141.3388  140.5498  165.7723 S.2     1  UNL1       -0.0653
     16 C         142.4045  140.7340  164.7329 C.ar    1  UNL1        0.0620
     17 C         140.8299  141.6206  168.1680 C.ar    1  UNL1        0.0269
     18 C         140.8697  142.9047  168.9424 C.ar    1  UNL1        0.0227
     19 C         140.0606  143.0490  170.1973 C.ar    1  UNL1        0.0989
     20 N         139.2118  141.9094  170.6776 N.ar    1  UNL1       -0.2423
     21 C         139.1721  140.6254  169.9032 C.ar    1  UNL1        0.0989
     22 C         139.9811  140.4810  168.6483 C.ar    1  UNL1        0.0227
     23 C         141.9163  137.4343  157.0763 C.3     1  UNL1        0.0437
     24 C         142.9502  136.3647  156.8835 C.3     1  UNL1        0.0768
     25 N         142.5388  134.9985  156.4208 N.3     1  UNL1       -0.2737
     26 C         141.4813  134.6942  155.4014 C.3     1  UNL1        0.0721
     27 C         141.4015  133.2044  155.2467 C.3     1  UNL1        0.0187
     28 C         142.4098  132.5879  156.1706 C.3     1  UNL1        0.0174
     29 C         143.1126  133.6967  156.8962 C.3     1  UNL1        0.0576
     30 C         144.1986  133.5325  157.9178 C.3     1  UNL1        0.0173
@<TRIPOS>BOND
     1    11    12    1
     2    12    13   ar
     3    13    14   ar
     4    14    17    1
     5    17    18   ar
     6    18    19   ar
     7    19    20   ar
     8    20    21   ar
     9    21    22   ar
    10    14    15   ar
    11    15    16   ar
    12    16     1    1
    13     1     2   ar
    14     2     3   ar
    15     3     4   ar
    16     4     5   ar
    17     5     6   ar
    18     6    23    1
    19    23    24    1
    20    24    25    1
    21    25    26    1
    22    26    27    1
    23    27    28    1
    24    28    29    1
    25    29    30    1
    26     6     7   ar
    27     7     8   ar
    28     8     9   ar
    29     9    10   ar
    30    16    12   ar
    31    10     1   ar
    32    22    17   ar
    33     9     4   ar
    34    29    25    1
@<TRIPOS>MOLECULE
*****
 30 34 0 0 0
SMALL
GASTEIGER

@<TRIPOS>ATOM
      1 C         141.0913  143.4203  162.2133 C.ar    1  UNL1        0.0884
      2 C         140.7897  144.4590  163.2526 C.ar    1  UNL1        0.0197
      3 C         140.3986  144.0412  164.6391 C.ar    1  UNL1        0.0030
      4 C         140.3092  142.5847  164.9863 C.ar    1  UNL1        0.0174
      5 C         139.9181  142.1669  166.3729 C.ar    1  UNL1       -0.0027
      6 C         139.8287  140.7104  166.7202 C.ar    1  UNL1       -0.0207
      7 C         140.1304  139.6717  165.6808 C.ar    1  UNL1       -0.0027
      8 C         140.5214  140.0895  164.2943 C.ar    1  UNL1        0.0188
      9 C         140.6109  141.5460  163.9471 C.ar    1  UNL1        0.0812
     10 N         141.0019  141.9638  162.5606 N.ar    1  UNL1       -0.2448
     11 C         143.9437  142.7978  160.7550 C.3     1  UNL1        0.0527
     12 C         142.7935  143.5520  160.1564 C.ar    1  UNL1        0.0674
     13 N         142.7524  144.1524  158.7825 N.ar    1  UNL1       -0.2426
     14 C         141.4159  144.8097  158.6036 C.ar    1  UNL1        0.1105
     15 S         140.6311  144.6154  159.8670 S.2     1  UNL1       -0.0653
     16 C         141.4824  143.8381  160.8267 C.ar    1  UNL1        0.0620
     17 C         140.9468  145.5340  157.3767 C.ar    1  UNL1        0.0269
     18 C         141.6402  145.3144  156.0649 C.ar    1  UNL1        0.0227
     19 C         141.1711  146.0387  154.8380 C.ar    1  UNL1        0.0989
     20 N         140.0085  146.9826  154.9230 N.ar    1  UNL1       -0.2423
     21 C         139.3150  147.2023  156.2348 C.ar    1  UNL1        0.0989
     22 C         139.7842  146.4780  157.4617 C.ar    1  UNL1        0.0227
     23 C         139.4376  140.2926  168.1067 C.3     1  UNL1        0.0437
     24 C         140.4962  140.0017  169.1290 C.3     1  UNL1        0.0768
     25 N         141.5227  141.0431  169.4629 N.3     1  UNL1       -0.2737
     26 C         143.0033  140.9197  169.2564 C.3     1  UNL1        0.0721
     27 C         143.6447  142.1911  169.7278 C.3     1  UNL1        0.0187
     28 C         142.5603  143.1003  170.2256 C.3     1  UNL1        0.0174
     29 C         141.2490  142.3907  170.0619 C.3     1  UNL1        0.0576
     30 C         139.9006  142.9336  170.4323 C.3     1  UNL1        0.0173
@<TRIPOS>BOND
     1    11    12    1
     2    12    13   ar
     3    13    14   ar
     4    14    17    1
     5    17    18   ar
     6    18    19   ar
     7    19    20   ar
     8    20    21   ar
     9    21    22   ar
    10    14    15   ar
    11    15    16   ar
    12    16     1    1
    13     1     2   ar
    14     2     3   ar
    15     3     4   ar
    16     4     5   ar
    17     5     6   ar
    18     6    23    1
    19    23    24    1
    20    24    25    1
    21    25    26    1
    22    26    27    1
    23    27    28    1
    24    28    29    1
    25    29    30    1
    26     6     7   ar
    27     7     8   ar
    28     8     9   ar
    29     9    10   ar
    30    16    12   ar
    31    10     1   ar
    32    22    17   ar
    33     9     4   ar
    34    29    25    1
@<TRIPOS>MOLECULE
*****
 30 34 0 0 0
SMALL
GASTEIGER

@<TRIPOS>ATOM
      1 C         139.2753  140.9916  163.5033 C.ar    1  UNL1        0.0884
      2 C         138.2220  140.5136  164.4583 C.ar    1  UNL1        0.0197
      3 C         138.6101  140.0424  165.8284 C.ar    1  UNL1        0.0030
      4 C         140.0515  140.0491  166.2435 C.ar    1  UNL1        0.0174
      5 C         140.4396  139.5778  167.6137 C.ar    1  UNL1       -0.0027
      6 C         141.8810  139.5846  168.0289 C.ar    1  UNL1       -0.0207
      7 C         142.9343  140.0626  167.0738 C.ar    1  UNL1       -0.0027
      8 C         142.5462  140.5338  165.7037 C.ar    1  UNL1        0.0188
      9 C         141.1048  140.5271  165.2886 C.ar    1  UNL1        0.0812
     10 N         140.7167  140.9983  163.9184 N.ar    1  UNL1       -0.2448
     11 C         137.9844  143.8973  162.7683 C.3     1  UNL1        0.0527
     12 C         138.2939  142.7985  161.7953 C.ar    1  UNL1        0.0674
     13 N         138.0643  142.8423  160.3136 N.ar    1  UNL1       -0.2426
     14 C         138.5158  141.5338  159.7357 C.ar    1  UNL1        0.1105
     15 S         139.0244  140.6813  160.8602 S.2     1  UNL1       -0.0653
     16 C         138.8872  141.4629  162.1331 C.ar    1  UNL1        0.0620
     17 C         138.4672  141.1459  158.2875 C.ar    1  UNL1        0.0269
     18 C         137.4218  141.7355  157.3878 C.ar    1  UNL1        0.0227
     19 C         137.3732  141.3476  155.9397 C.ar    1  UNL1        0.0989
     20 N         138.3701  140.3701  155.3912 N.ar    1  UNL1       -0.2423
     21 C         139.4155  139.7805  156.2909 C.ar    1  UNL1        0.0989
     22 C         139.4641  140.1684  157.7391 C.ar    1  UNL1        0.0227
     23 C         142.2691  139.1133  169.3990 C.3     1  UNL1        0.0437
     24 C         142.0257  139.9910  170.5909 C.3     1  UNL1        0.0768
     25 N         141.5138  141.3881  170.4015 N.3     1  UNL1       -0.2737
     26 C         140.0883  141.8320  170.5459 C.3     1  UNL1        0.0721
     27 C         140.0310  143.3049  170.2681 C.3     1  UNL1        0.0187
     28 C         141.4212  143.7714  169.9520 C.3     1  UNL1        0.0174
     29 C         142.3376  142.5867  170.0345 C.3     1  UNL1        0.0576
     30 C         143.8179  142.5986  169.7924 C.3     1  UNL1        0.0173
@<TRIPOS>BOND
     1    11    12    1
     2    12    13   ar
     3    13    14   ar
     4    14    17    1
     5    17    18   ar
     6    18    19   ar
     7    19    20   ar
     8    20    21   ar
     9    21    22   ar
    10    14    15   ar
    11    15    16   ar
    12    16     1    1
    13     1     2   ar
    14     2     3   ar
    15     3     4   ar
    16     4     5   ar
    17     5     6   ar
    18     6    23    1
    19    23    24    1
    20    24    25    1
    21    25    26    1
    22    26    27    1
    23    27    28    1
    24    28    29    1
    25    29    30    1
    26     6     7   ar
    27     7     8   ar
    28     8     9   ar
    29     9    10   ar
    30    16    12   ar
    31    10     1   ar
    32    22    17   ar
    33     9     4   ar
    34    29    25    1
@<TRIPOS>MOLECULE
*****
 30 34 0 0 0
SMALL
GASTEIGER

@<TRIPOS>ATOM
      1 C         142.8019  138.4514  159.8685 C.ar    1  UNL1        0.0884
      2 C         143.9671  139.2903  160.3025 C.ar    1  UNL1        0.0197
      3 C         144.2417  139.4943  161.7629 C.ar    1  UNL1        0.0030
      4 C         143.3510  138.8594  162.7893 C.ar    1  UNL1        0.0174
      5 C         143.6256  139.0635  164.2499 C.ar    1  UNL1       -0.0027
      6 C         142.7349  138.4286  165.2763 C.ar    1  UNL1       -0.0207
      7 C         141.5696  137.5897  164.8422 C.ar    1  UNL1       -0.0027
      8 C         141.2951  137.3856  163.3818 C.ar    1  UNL1        0.0188
      9 C         142.1858  138.0205  162.3553 C.ar    1  UNL1        0.0812
     10 N         141.9112  137.8165  160.8949 N.ar    1  UNL1       -0.2448
     11 C         142.0051  140.7777  157.7230 C.3     1  UNL1        0.0527
     12 C         142.1611  139.3166  157.4218 C.ar    1  UNL1        0.0674
     13 N         141.9782  138.6682  156.0816 N.ar    1  UNL1       -0.2426
     14 C         142.2314  137.1981  156.2394 C.ar    1  UNL1        0.1105
     15 S         142.5708  136.9380  157.6772 S.2     1  UNL1       -0.0653
     16 C         142.5273  138.2473  158.4079 C.ar    1  UNL1        0.0620
     17 C         142.1581  136.1690  155.1507 C.ar    1  UNL1        0.0269
     18 C         141.7766  136.5760  153.7583 C.ar    1  UNL1        0.0227
     19 C         141.7033  135.5469  152.6695 C.ar    1  UNL1        0.0989
     20 N         142.0115  134.1106  152.9732 N.ar    1  UNL1       -0.2423
     21 C         142.3930  133.7036  154.3656 C.ar    1  UNL1        0.0989
     22 C         142.4663  134.7327  155.4543 C.ar    1  UNL1        0.0227
     23 C         143.0094  138.6327  166.7368 C.3     1  UNL1        0.0437
     24 C         142.6708  139.9409  167.3880 C.3     1  UNL1        0.0768
     25 N         141.5291  140.0228  168.3573 N.3     1  UNL1       -0.2737
     26 C         141.6402  140.0155  169.8532 C.3     1  UNL1        0.0721
     27 C         140.2555  140.1146  170.4214 C.3     1  UNL1        0.0187
     28 C         139.2886  140.1831  169.2766 C.3     1  UNL1        0.0174
     29 C         140.0757  140.1264  168.0010 C.3     1  UNL1        0.0576
     30 C         139.5089  140.1663  166.6128 C.3     1  UNL1        0.0173
@<TRIPOS>BOND
     1    11    12    1
     2    12    13   ar
     3    13    14   ar
     4    14    17    1
     5    17    18   ar
     6    18    19   ar
     7    19    20   ar
     8    20    21   ar
     9    21    22   ar
    10    14    15   ar
    11    15    16   ar
    12    16     1    1
    13     1     2   ar
    14     2     3   ar
    15     3     4   ar
    16     4     5   ar
    17     5     6   ar
    18     6    23    1
    19    23    24    1
    20    24    25    1
    21    25    26    1
    22    26    27    1
    23    27    28    1
    24    28    29    1
    25    29    30    1
    26     6     7   ar
    27     7     8   ar
    28     8     9   ar
    29     9    10   ar
    30    16    12   ar
    31    10     1   ar
    32    22    17   ar
    33     9     4   ar
    34    29    25    1
@<TRIPOS>MOLECULE
*****
 30 34 0 0 0
SMALL
GASTEIGER

@<TRIPOS>ATOM
      1 C         142.6426  138.3291  159.8248 C.ar    1  UNL1        0.0884
      2 C         143.8386  139.1599  160.1842 C.ar    1  UNL1        0.0197
      3 C         144.1834  139.3942  161.6250 C.ar    1  UNL1        0.0030
      4 C         143.3322  138.7978  162.7065 C.ar    1  UNL1        0.0174
      5 C         143.6770  139.0322  164.1475 C.ar    1  UNL1       -0.0027
      6 C         142.8258  138.4357  165.2289 C.ar    1  UNL1       -0.0207
      7 C         141.6297  137.6048  164.8695 C.ar    1  UNL1       -0.0027
      8 C         141.2849  137.3705  163.4286 C.ar    1  UNL1        0.0188
      9 C         142.1362  137.9669  162.3471 C.ar    1  UNL1        0.0812
     10 N         141.7914  137.7326  160.9063 N.ar    1  UNL1       -0.2448
     11 C         141.2802  140.4968  157.8012 C.3     1  UNL1        0.0527
     12 C         141.6716  139.0910  157.4538 C.ar    1  UNL1        0.0674
     13 N         141.5054  138.4349  156.1152 N.ar    1  UNL1       -0.2426
     14 C         142.0290  137.0330  156.2179 C.ar    1  UNL1        0.1105
     15 S         142.5187  136.8227  157.6200 S.2     1  UNL1       -0.0653
     16 C         142.2978  138.0947  158.3838 C.ar    1  UNL1        0.0620
     17 C         142.0578  136.0193  155.1126 C.ar    1  UNL1        0.0269
     18 C         142.4782  134.6083  155.3997 C.ar    1  UNL1        0.0227
     19 C         142.5069  133.5947  154.2945 C.ar    1  UNL1        0.0989
     20 N         142.1153  133.9920  152.9021 N.ar    1  UNL1       -0.2423
     21 C         141.6949  135.4030  152.6150 C.ar    1  UNL1        0.0989
     22 C         141.6661  136.4167  153.7203 C.ar    1  UNL1        0.0227
     23 C         143.1705  138.6700  166.6698 C.3     1  UNL1        0.0437
     24 C         142.4510  139.7298  167.4504 C.3     1  UNL1        0.0768
     25 N         141.6653  140.7867  166.7325 N.3     1  UNL1       -0.2737
     26 C         142.2244  142.0339  166.1144 C.3     1  UNL1        0.0721
     27 C         141.0871  142.8000  165.5065 C.3     1  UNL1        0.0187
     28 C         139.8250  142.0263  165.7488 C.3     1  UNL1        0.0174
     29 C         140.1824  140.7820  166.5065 C.3     1  UNL1        0.0576
     30 C         139.2250  139.7196  166.9589 C.3     1  UNL1        0.0173
@<TRIPOS>BOND
     1    11    12    1
     2    12    13   ar
     3    13    14   ar
     4    14    17    1
     5    17    18   ar
     6    18    19   ar
     7    19    20   ar
     8    20    21   ar
     9    21    22   ar
    10    14    15   ar
    11    15    16   ar
    12    16     1    1
    13     1     2   ar
    14     2     3   ar
    15     3     4   ar
    16     4     5   ar
    17     5     6   ar
    18     6    23    1
    19    23    24    1
    20    24    25    1
    21    25    26    1
    22    26    27    1
    23    27    28    1
    24    28    29    1
    25    29    30    1
    26     6     7   ar
    27     7     8   ar
    28     8     9   ar
    29     9    10   ar
    30    16    12   ar
    31    10     1   ar
    32    22    17   ar
    33     9     4   ar
    34    29    25    1
@<TRIPOS>MOLECULE
*****
 30 34 0 0 0
SMALL
GASTEIGER

@<TRIPOS>ATOM
      1 C         142.7927  138.4498  158.5910 C.ar    1  UNL1        0.0884
      2 C         143.1990  139.8415  158.2064 C.ar    1  UNL1        0.0197
      3 C         143.7997  140.7576  159.2309 C.ar    1  UNL1        0.0030
      4 C         143.9941  140.2820  160.6402 C.ar    1  UNL1        0.0174
      5 C         144.5949  141.1982  161.6648 C.ar    1  UNL1       -0.0027
      6 C         144.7893  140.7227  163.0741 C.ar    1  UNL1       -0.0207
      7 C         144.3829  139.3309  163.4588 C.ar    1  UNL1       -0.0027
      8 C         143.7822  138.4147  162.4342 C.ar    1  UNL1        0.0188
      9 C         143.5878  138.8903  161.0249 C.ar    1  UNL1        0.0812
     10 N         142.9871  137.9742  160.0003 N.ar    1  UNL1       -0.2448
     11 C         139.7621  138.6341  157.3947 C.3     1  UNL1        0.0527
     12 C         140.7990  137.6183  157.0166 C.ar    1  UNL1        0.0674
     13 N         140.6249  136.5089  156.0221 N.ar    1  UNL1       -0.2426
     14 C         141.9104  135.7384  155.9574 C.ar    1  UNL1        0.1105
     15 S         142.8789  136.3717  156.9118 S.2     1  UNL1       -0.0653
     16 C         142.1920  137.5336  157.5664 C.ar    1  UNL1        0.0620
     17 C         142.1800  134.5444  155.0905 C.ar    1  UNL1        0.0269
     18 C         143.0059  133.4076  155.6154 C.ar    1  UNL1        0.0227
     19 C         143.2754  132.2135  154.7485 C.ar    1  UNL1        0.0989
     20 N         142.7191  132.1563  153.3566 N.ar    1  UNL1       -0.2423
     21 C         141.8932  133.2932  152.8317 C.ar    1  UNL1        0.0989
     22 C         141.6236  134.4872  153.6987 C.ar    1  UNL1        0.0227
     23 C         145.3899  141.6388  164.0987 C.3     1  UNL1        0.0437
     24 C         144.5998  142.8027  164.6193 C.3     1  UNL1        0.0768
     25 N         143.3337  142.5660  165.3880 N.3     1  UNL1       -0.2737
     26 C         143.2300  142.3357  166.8666 C.3     1  UNL1        0.0721
     27 C         141.7813  142.1453  167.2056 C.3     1  UNL1        0.0187
     28 C         140.9896  142.2579  165.9364 C.3     1  UNL1        0.0174
     29 C         141.9491  142.5179  164.8132 C.3     1  UNL1        0.0576
     30 C         141.5874  142.6982  163.3686 C.3     1  UNL1        0.0173
@<TRIPOS>BOND
     1    11    12    1
     2    12    13   ar
     3    13    14   ar
     4    14    17    1
     5    17    18   ar
     6    18    19   ar
     7    19    20   ar
     8    20    21   ar
     9    21    22   ar
    10    14    15   ar
    11    15    16   ar
    12    16     1    1
    13     1     2   ar
    14     2     3   ar
    15     3     4   ar
    16     4     5   ar
    17     5     6   ar
    18     6    23    1
    19    23    24    1
    20    24    25    1
    21    25    26    1
    22    26    27    1
    23    27    28    1
    24    28    29    1
    25    29    30    1
    26     6     7   ar
    27     7     8   ar
    28     8     9   ar
    29     9    10   ar
    30    16    12   ar
    31    10     1   ar
    32    22    17   ar
    33     9     4   ar
    34    29    25    1
@<TRIPOS>MOLECULE
*****
 30 34 0 0 0
SMALL
GASTEIGER

@<TRIPOS>ATOM
      1 C         139.8779  139.6215  163.9437 C.ar    1  UNL1        0.0884
      2 C         140.2279  138.2337  163.4950 C.ar    1  UNL1        0.0197
      3 C         140.1649  137.8779  162.0392 C.ar    1  UNL1        0.0030
      4 C         139.7519  138.9099  161.0321 C.ar    1  UNL1        0.0174
      5 C         139.6890  138.5540  159.5762 C.ar    1  UNL1       -0.0027
      6 C         139.2760  139.5861  158.5691 C.ar    1  UNL1       -0.0207
      7 C         138.9260  140.9740  159.0178 C.ar    1  UNL1       -0.0027
      8 C         138.9890  141.3298  160.4736 C.ar    1  UNL1        0.0188
      9 C         139.4019  140.2978  161.4807 C.ar    1  UNL1        0.0812
     10 N         139.4649  140.6536  162.9365 N.ar    1  UNL1       -0.2448
     11 C         137.9618  138.4206  166.2966 C.3     1  UNL1        0.0527
     12 C         139.0601  139.4254  166.4810 C.ar    1  UNL1        0.0674
     13 N         139.4705  140.0546  167.7793 N.ar    1  UNL1       -0.2426
     14 C         140.6050  140.9956  167.5002 C.ar    1  UNL1        0.1105
     15 S         140.8956  140.9478  166.0295 S.2     1  UNL1       -0.0653
     16 C         139.9408  139.9774  165.3995 C.ar    1  UNL1        0.0620
     17 C         141.3227  141.8365  168.5140 C.ar    1  UNL1        0.0269
     18 C         140.5928  142.9341  169.2299 C.ar    1  UNL1        0.0227
     19 C         141.3105  143.7751  170.2437 C.ar    1  UNL1        0.0989
     20 N         142.7581  143.5185  170.5414 N.ar    1  UNL1       -0.2423
     21 C         143.4879  142.4209  169.8254 C.ar    1  UNL1        0.0989
     22 C         142.7702  141.5799  168.8117 C.ar    1  UNL1        0.0227
     23 C         139.2131  139.2303  157.1133 C.3     1  UNL1        0.0437
     24 C         138.6144  140.1931  156.1310 C.3     1  UNL1        0.0768
     25 N         137.1413  140.1593  155.8505 N.3     1  UNL1       -0.2737
     26 C         136.0967  141.0025  156.5198 C.3     1  UNL1        0.0721
     27 C         134.7639  140.6408  155.9344 C.3     1  UNL1        0.0187
     28 C         134.9847  139.5741  154.9032 C.3     1  UNL1        0.0174
     29 C         136.4540  139.2765  154.8514 C.3     1  UNL1        0.0576
     30 C         137.1192  138.2724  153.9573 C.3     1  UNL1        0.0173
@<TRIPOS>BOND
     1    11    12    1
     2    12    13   ar
     3    13    14   ar
     4    14    17    1
     5    17    18   ar
     6    18    19   ar
     7    19    20   ar
     8    20    21   ar
     9    21    22   ar
    10    14    15   ar
    11    15    16   ar
    12    16     1    1
    13     1     2   ar
    14     2     3   ar
    15     3     4   ar
    16     4     5   ar
    17     5     6   ar
    18     6    23    1
    19    23    24    1
    20    24    25    1
    21    25    26    1
    22    26    27    1
    23    27    28    1
    24    28    29    1
    25    29    30    1
    26     6     7   ar
    27     7     8   ar
    28     8     9   ar
    29     9    10   ar
    30    16    12   ar
    31    10     1   ar
    32    22    17   ar
    33     9     4   ar
    34    29    25    1
