@<TRIPOS>MOLECULE
*****
 22 24 0 0 0
SMALL
GASTEIGER

@<TRIPOS>ATOM
      1 O         142.7537  140.4248  168.2389 O.3     1  UNL1       -0.3782
      2 C         141.5801  140.7134  167.3504 C.3     1  UNL1        0.1325
      3 H         143.5478  140.3015  167.6957 H       1  UNL1        0.2111
      4 C         140.9122  141.4518  168.4725 C.ar    1  UNL1        0.0251
      5 C         141.3047  142.8671  168.7774 C.ar    1  UNL1        0.0014
      6 C         140.6369  143.6054  169.8994 C.ar    1  UNL1        0.0204
      7 C         139.5767  142.9285  170.7164 C.ar    1  UNL1        0.0989
      8 N         139.1842  141.5133  170.4114 N.ar    1  UNL1       -0.2426
      9 C         139.8519  140.7749  169.2895 C.ar    1  UNL1        0.0971
     10 C         140.4065  141.0021  166.4620 C.ar    1  UNL1        0.0251
     11 C         140.1589  142.3998  165.9769 C.ar    1  UNL1        0.0014
     12 C         138.9853  142.6884  165.0885 C.ar    1  UNL1        0.0204
     13 C         138.0593  141.5794  164.6851 C.ar    1  UNL1        0.0989
     14 N         138.3069  140.1818  165.1702 N.ar    1  UNL1       -0.2426
     15 C         139.4805  139.8931  166.0586 C.ar    1  UNL1        0.0971
     16 C         142.2479  139.9751  166.2284 C.3     1  UNL1        0.0618
     17 C         143.3460  140.6330  165.4464 C.ar    1  UNL1       -0.0192
     18 C         144.2104  139.8150  164.5334 C.ar    1  UNL1       -0.0042
     19 C         145.3084  140.4728  163.7515 C.ar    1  UNL1       -0.0003
     20 C         145.5420  141.9487  163.8824 C.ar    1  UNL1       -0.0000
     21 C         144.6776  142.7668  164.7954 C.ar    1  UNL1       -0.0003
     22 C         143.5795  142.1089  165.5774 C.ar    1  UNL1       -0.0042
@<TRIPOS>BOND
     1     1     2    1
     2     2    16    1
     3    16    17    1
     4    17    18   ar
     5    18    19   ar
     6    19    20   ar
     7    20    21   ar
     8    21    22   ar
     9     2     4    1
    10     4     5   ar
    11     5     6   ar
    12     6     7   ar
    13     7     8   ar
    14     8     9   ar
    15     2    10    1
    16    10    11   ar
    17    11    12   ar
    18    12    13   ar
    19    13    14   ar
    20    14    15   ar
    21    22    17   ar
    22     9     4   ar
    23    15    10   ar
    24     1     3    1
@<TRIPOS>MOLECULE
*****
 22 24 0 0 0
SMALL
GASTEIGER

@<TRIPOS>ATOM
      1 O         139.7317  140.1989  168.1082 O.3     1  UNL1       -0.3782
      2 C         140.1672  141.2613  167.1430 C.3     1  UNL1        0.1325
      3 H         139.4858  139.3985  167.6186 H       1  UNL1        0.2111
      4 C         141.0153  141.8847  168.2119 C.ar    1  UNL1        0.0251
      5 C         142.3979  141.3640  168.4711 C.ar    1  UNL1        0.0014
      6 C         143.2459  141.9873  169.5399 C.ar    1  UNL1        0.0204
      7 C         142.7113  143.1314  170.3494 C.ar    1  UNL1        0.0989
      8 N         141.3287  143.6521  170.0901 N.ar    1  UNL1       -0.2426
      9 C         140.4807  143.0287  169.0214 C.ar    1  UNL1        0.0971
     10 C         140.6028  142.3237  166.1779 C.ar    1  UNL1        0.0251
     11 C         139.6061  143.3140  165.6526 C.ar    1  UNL1        0.0014
     12 C         140.0418  144.3765  164.6874 C.ar    1  UNL1        0.0204
     13 C         141.4740  144.4486  164.2476 C.ar    1  UNL1        0.0989
     14 N         142.4706  143.4583  164.7729 N.ar    1  UNL1       -0.2426
     15 C         142.0351  142.3959  165.7380 C.ar    1  UNL1        0.0971
     16 C         139.3193  140.6380  166.0742 C.3     1  UNL1        0.0618
     17 C         139.8297  139.4545  165.3069 C.ar    1  UNL1       -0.0192
     18 C         141.2127  138.9337  165.5640 C.ar    1  UNL1       -0.0042
     19 C         141.7231  137.7502  164.7967 C.ar    1  UNL1       -0.0003
     20 C         140.8505  137.0875  163.7723 C.ar    1  UNL1       -0.0000
     21 C         139.4675  137.6083  163.5152 C.ar    1  UNL1       -0.0003
     22 C         138.9571  138.7918  164.2825 C.ar    1  UNL1       -0.0042
@<TRIPOS>BOND
     1     1     2    1
     2     2    16    1
     3    16    17    1
     4    17    18   ar
     5    18    19   ar
     6    19    20   ar
     7    20    21   ar
     8    21    22   ar
     9     2     4    1
    10     4     5   ar
    11     5     6   ar
    12     6     7   ar
    13     7     8   ar
    14     8     9   ar
    15     2    10    1
    16    10    11   ar
    17    11    12   ar
    18    12    13   ar
    19    13    14   ar
    20    14    15   ar
    21    22    17   ar
    22     9     4   ar
    23    15    10   ar
    24     1     3    1
@<TRIPOS>MOLECULE
*****
 22 24 0 0 0
SMALL
GASTEIGER

@<TRIPOS>ATOM
      1 O         142.9827  142.3722  167.8025 O.3     1  UNL1       -0.3782
      2 C         142.3829  141.2188  167.0543 C.3     1  UNL1        0.1325
      3 H         143.2359  143.0677  167.1756 H       1  UNL1        0.2111
      4 C         141.6000  140.8342  168.2746 C.ar    1  UNL1        0.0251
      5 C         140.4088  141.6466  168.6883 C.ar    1  UNL1        0.0014
      6 C         139.6258  141.2620  169.9085 C.ar    1  UNL1        0.0204
      7 C         140.0341  140.0651  170.7151 C.ar    1  UNL1        0.0989
      8 N         141.2253  139.2528  170.3015 N.ar    1  UNL1       -0.2426
      9 C         142.0082  139.6373  169.0812 C.ar    1  UNL1        0.0971
     10 C         141.7831  140.0654  166.3060 C.ar    1  UNL1        0.0251
     11 C         140.3011  140.0059  166.0821 C.ar    1  UNL1        0.0014
     12 C         139.7014  138.8525  165.3338 C.ar    1  UNL1        0.0204
     13 C         140.5836  137.7586  164.8095 C.ar    1  UNL1        0.0989
     14 N         142.0656  137.8181  165.0334 N.ar    1  UNL1       -0.2426
     15 C         142.6654  138.9715  165.7816 C.ar    1  UNL1        0.0971
     16 C         143.1658  141.6034  165.8340 C.3     1  UNL1        0.0618
     17 C         142.8516  142.8807  165.1130 C.ar    1  UNL1       -0.0192
     18 C         143.9633  143.7848  164.6697 C.ar    1  UNL1       -0.0042
     19 C         143.6491  145.0620  163.9487 C.ar    1  UNL1       -0.0003
     20 C         142.2230  145.4351  163.6710 C.ar    1  UNL1       -0.0000
     21 C         141.1112  144.5311  164.1143 C.ar    1  UNL1       -0.0003
     22 C         141.4255  143.2538  164.8352 C.ar    1  UNL1       -0.0042
@<TRIPOS>BOND
     1     1     2    1
     2     2    16    1
     3    16    17    1
     4    17    18   ar
     5    18    19   ar
     6    19    20   ar
     7    20    21   ar
     8    21    22   ar
     9     2     4    1
    10     4     5   ar
    11     5     6   ar
    12     6     7   ar
    13     7     8   ar
    14     8     9   ar
    15     2    10    1
    16    10    11   ar
    17    11    12   ar
    18    12    13   ar
    19    13    14   ar
    20    14    15   ar
    21    22    17   ar
    22     9     4   ar
    23    15    10   ar
    24     1     3    1
@<TRIPOS>MOLECULE
*****
 22 24 0 0 0
SMALL
GASTEIGER

@<TRIPOS>ATOM
      1 O         142.1038  142.9796  164.9711 O.3     1  UNL1       -0.3782
      2 C         141.2325  141.7651  165.0966 C.3     1  UNL1        0.1325
      3 H         143.0291  142.7051  164.8743 H       1  UNL1        0.2111
      4 C         140.0737  142.5389  164.5411 C.ar    1  UNL1        0.0251
      5 C         139.4606  143.6494  165.3417 C.ar    1  UNL1        0.0014
      6 C         138.3019  144.4232  164.7862 C.ar    1  UNL1        0.0204
      7 C         137.7563  144.0865  163.4301 C.ar    1  UNL1        0.0989
      8 N         138.3694  142.9760  162.6296 N.ar    1  UNL1       -0.2426
      9 C         139.5281  142.2022  163.1850 C.ar    1  UNL1        0.0971
     10 C         140.3612  140.5506  165.2222 C.ar    1  UNL1        0.0251
     11 C         139.2111  140.5489  166.1852 C.ar    1  UNL1        0.0014
     12 C         138.3398  139.3343  166.3108 C.ar    1  UNL1        0.0204
     13 C         138.6186  138.1215  165.4733 C.ar    1  UNL1        0.0989
     14 N         139.7686  138.1232  164.5103 N.ar    1  UNL1       -0.2426
     15 C         140.6399  139.3377  164.3847 C.ar    1  UNL1        0.0971
     16 C         142.3911  140.9913  165.6522 C.3     1  UNL1        0.0618
     17 C         142.6143  140.9357  167.1345 C.ar    1  UNL1       -0.0192
     18 C         143.0363  142.1693  167.8762 C.ar    1  UNL1       -0.0042
     19 C         143.2594  142.1137  169.3584 C.ar    1  UNL1       -0.0003
     20 C         143.0605  140.8244  170.0990 C.ar    1  UNL1       -0.0000
     21 C         142.6386  139.5909  169.3573 C.ar    1  UNL1       -0.0003
     22 C         142.4154  139.6465  167.8750 C.ar    1  UNL1       -0.0042
@<TRIPOS>BOND
     1     1     2    1
     2     2    16    1
     3    16    17    1
     4    17    18   ar
     5    18    19   ar
     6    19    20   ar
     7    20    21   ar
     8    21    22   ar
     9     2     4    1
    10     4     5   ar
    11     5     6   ar
    12     6     7   ar
    13     7     8   ar
    14     8     9   ar
    15     2    10    1
    16    10    11   ar
    17    11    12   ar
    18    12    13   ar
    19    13    14   ar
    20    14    15   ar
    21    22    17   ar
    22     9     4   ar
    23    15    10   ar
    24     1     3    1
@<TRIPOS>MOLECULE
*****
 22 24 0 0 0
SMALL
GASTEIGER

@<TRIPOS>ATOM
      1 O         142.5274  142.2420  166.3376 O.3     1  UNL1       -0.3782
      2 C         141.5287  141.1332  166.1852 C.3     1  UNL1        0.1325
      3 H         142.2688  142.9895  165.7761 H       1  UNL1        0.2111
      4 C         141.8704  140.6366  167.5587 C.ar    1  UNL1        0.0251
      5 C         141.4313  141.4100  168.7666 C.ar    1  UNL1        0.0014
      6 C         141.7729  140.9134  170.1402 C.ar    1  UNL1        0.0204
      7 C         142.5537  139.6435  170.3058 C.ar    1  UNL1        0.0989
      8 N         142.9928  138.8700  169.0979 N.ar    1  UNL1       -0.2426
      9 C         142.6512  139.3666  167.7244 C.ar    1  UNL1        0.0971
     10 C         140.5301  140.0245  166.0327 C.ar    1  UNL1        0.0251
     11 C         139.2542  140.0506  166.8211 C.ar    1  UNL1        0.0014
     12 C         138.2556  138.9417  166.6686 C.ar    1  UNL1        0.0204
     13 C         138.5328  137.8068  165.7278 C.ar    1  UNL1        0.0989
     14 N         139.8086  137.7807  164.9395 N.ar    1  UNL1       -0.2426
     15 C         140.8073  138.8895  165.0919 C.ar    1  UNL1        0.0971
     16 C         141.1870  141.6298  164.8116 C.3     1  UNL1        0.0618
     17 C         140.0044  142.5309  164.6125 C.ar    1  UNL1       -0.0192
     18 C         138.9898  142.2139  163.5542 C.ar    1  UNL1       -0.0042
     19 C         137.8073  143.1150  163.3551 C.ar    1  UNL1       -0.0003
     20 C         137.6393  144.3329  164.2144 C.ar    1  UNL1       -0.0000
     21 C         138.6539  144.6499  165.2727 C.ar    1  UNL1       -0.0003
     22 C         139.8364  143.7489  165.4718 C.ar    1  UNL1       -0.0042
@<TRIPOS>BOND
     1     1     2    1
     2     2    16    1
     3    16    17    1
     4    17    18   ar
     5    18    19   ar
     6    19    20   ar
     7    20    21   ar
     8    21    22   ar
     9     2     4    1
    10     4     5   ar
    11     5     6   ar
    12     6     7   ar
    13     7     8   ar
    14     8     9   ar
    15     2    10    1
    16    10    11   ar
    17    11    12   ar
    18    12    13   ar
    19    13    14   ar
    20    14    15   ar
    21    22    17   ar
    22     9     4   ar
    23    15    10   ar
    24     1     3    1
@<TRIPOS>MOLECULE
*****
 22 24 0 0 0
SMALL
GASTEIGER

@<TRIPOS>ATOM
      1 O         140.2411  141.0763  165.8277 O.3     1  UNL1       -0.3782
      2 C         141.2604  141.7992  164.9980 C.3     1  UNL1        0.1325
      3 H         140.6672  140.7141  166.6202 H       1  UNL1        0.2111
      4 C         140.1785  142.6639  164.4220 C.ar    1  UNL1        0.0251
      5 C         139.5453  143.7327  165.2626 C.ar    1  UNL1        0.0014
      6 C         138.4634  144.5974  164.6866 C.ar    1  UNL1        0.0204
      7 C         138.0147  144.3932  163.2700 C.ar    1  UNL1        0.0989
      8 N         138.6478  143.3243  162.4294 N.ar    1  UNL1       -0.2426
      9 C         139.7297  142.4596  163.0054 C.ar    1  UNL1        0.0971
     10 C         142.2798  142.5220  164.1684 C.ar    1  UNL1        0.0251
     11 C         142.5786  143.9669  164.4384 C.ar    1  UNL1        0.0014
     12 C         143.5980  144.6898  163.6087 C.ar    1  UNL1        0.0204
     13 C         144.3185  143.9677  162.5090 C.ar    1  UNL1        0.0989
     14 N         144.0197  142.5228  162.2389 N.ar    1  UNL1       -0.2426
     15 C         143.0004  141.8000  163.0686 C.ar    1  UNL1        0.0971
     16 C         142.3424  140.9346  165.5740 C.3     1  UNL1        0.0618
     17 C         142.6092  140.9506  167.0501 C.ar    1  UNL1       -0.0192
     18 C         142.4365  139.6981  167.8571 C.ar    1  UNL1       -0.0042
     19 C         142.7034  139.7141  169.3330 C.ar    1  UNL1       -0.0003
     20 C         143.1428  140.9827  170.0020 C.ar    1  UNL1       -0.0000
     21 C         143.3155  142.2353  169.1950 C.ar    1  UNL1       -0.0003
     22 C         143.0486  142.2192  167.7190 C.ar    1  UNL1       -0.0042
@<TRIPOS>BOND
     1     1     2    1
     2     2    16    1
     3    16    17    1
     4    17    18   ar
     5    18    19   ar
     6    19    20   ar
     7    20    21   ar
     8    21    22   ar
     9     2     4    1
    10     4     5   ar
    11     5     6   ar
    12     6     7   ar
    13     7     8   ar
    14     8     9   ar
    15     2    10    1
    16    10    11   ar
    17    11    12   ar
    18    12    13   ar
    19    13    14   ar
    20    14    15   ar
    21    22    17   ar
    22     9     4   ar
    23    15    10   ar
    24     1     3    1
@<TRIPOS>MOLECULE
*****
 22 24 0 0 0
SMALL
GASTEIGER

@<TRIPOS>ATOM
      1 O         142.3027  141.0141  165.7994 O.3     1  UNL1       -0.3782
      2 C         141.1729  141.7638  165.1580 C.3     1  UNL1        0.1325
      3 H         141.9742  140.1706  166.1482 H       1  UNL1        0.2111
      4 C         142.1495  142.4752  164.2691 C.ar    1  UNL1        0.0251
      5 C         143.0821  143.4982  164.8468 C.ar    1  UNL1        0.0014
      6 C         144.0587  144.2096  163.9580 C.ar    1  UNL1        0.0204
      7 C         144.1027  143.8980  162.4914 C.ar    1  UNL1        0.0989
      8 N         143.1702  142.8750  161.9137 N.ar    1  UNL1       -0.2426
      9 C         142.1936  142.1636  162.8025 C.ar    1  UNL1        0.0971
     10 C         140.0430  142.5135  164.5166 C.ar    1  UNL1        0.0251
     11 C         139.9560  144.0042  164.6585 C.ar    1  UNL1        0.0014
     12 C         138.8261  144.7540  164.0171 C.ar    1  UNL1        0.0204
     13 C         137.7833  144.0130  163.2339 C.ar    1  UNL1        0.0989
     14 N         137.8704  142.5222  163.0920 N.ar    1  UNL1       -0.2426
     15 C         139.0002  141.7725  163.7334 C.ar    1  UNL1        0.0971
     16 C         140.1962  141.0524  166.0469 C.3     1  UNL1        0.0618
     17 C         140.0994  141.4177  167.4985 C.ar    1  UNL1       -0.0192
     18 C         139.5539  140.4290  168.4859 C.ar    1  UNL1       -0.0042
     19 C         139.4572  140.7943  169.9375 C.ar    1  UNL1       -0.0003
     20 C         139.9059  142.1482  170.4017 C.ar    1  UNL1       -0.0000
     21 C         140.4514  143.1369  169.4143 C.ar    1  UNL1       -0.0003
     22 C         140.5481  142.7716  167.9628 C.ar    1  UNL1       -0.0042
@<TRIPOS>BOND
     1     1     2    1
     2     2    16    1
     3    16    17    1
     4    17    18   ar
     5    18    19   ar
     6    19    20   ar
     7    20    21   ar
     8    21    22   ar
     9     2     4    1
    10     4     5   ar
    11     5     6   ar
    12     6     7   ar
    13     7     8   ar
    14     8     9   ar
    15     2    10    1
    16    10    11   ar
    17    11    12   ar
    18    12    13   ar
    19    13    14   ar
    20    14    15   ar
    21    22    17   ar
    22     9     4   ar
    23    15    10   ar
    24     1     3    1
@<TRIPOS>MOLECULE
*****
 22 24 0 0 0
SMALL
GASTEIGER

@<TRIPOS>ATOM
      1 O         142.7774  142.3028  167.5438 O.3     1  UNL1       -0.3782
      2 C         141.4979  142.4269  166.7709 C.3     1  UNL1        0.1325
      3 H         143.4755  142.8063  167.0965 H       1  UNL1        0.2111
      4 C         140.7153  142.1834  168.0272 C.ar    1  UNL1        0.0251
      5 C         140.1492  140.8226  168.3063 C.ar    1  UNL1        0.0014
      6 C         139.3667  140.5790  169.5626 C.ar    1  UNL1        0.0204
      7 C         139.1502  141.6963  170.5397 C.ar    1  UNL1        0.0989
      8 N         139.7162  143.0570  170.2606 N.ar    1  UNL1       -0.2426
      9 C         140.4988  143.3006  169.0044 C.ar    1  UNL1        0.0971
     10 C         140.2184  142.5510  165.9980 C.ar    1  UNL1        0.0251
     11 C         139.6643  143.9076  165.6775 C.ar    1  UNL1        0.0014
     12 C         138.3847  144.0316  164.9046 C.ar    1  UNL1        0.0204
     13 C         137.6593  142.7992  164.4521 C.ar    1  UNL1        0.0989
     14 N         138.2134  141.4426  164.7726 N.ar    1  UNL1       -0.2426
     15 C         139.4929  141.3185  165.5455 C.ar    1  UNL1        0.0971
     16 C         142.2804  142.6704  165.5146 C.3     1  UNL1        0.0618
     17 C         143.2486  141.6361  165.0216 C.ar    1  UNL1       -0.0192
     18 C         144.5709  142.0574  164.4524 C.ar    1  UNL1       -0.0042
     19 C         145.5389  141.0231  163.9595 C.ar    1  UNL1       -0.0003
     20 C         145.1847  139.5675  164.0358 C.ar    1  UNL1       -0.0000
     21 C         143.8624  139.1462  164.6050 C.ar    1  UNL1       -0.0003
     22 C         142.8944  140.1805  165.0979 C.ar    1  UNL1       -0.0042
@<TRIPOS>BOND
     1     1     2    1
     2     2    16    1
     3    16    17    1
     4    17    18   ar
     5    18    19   ar
     6    19    20   ar
     7    20    21   ar
     8    21    22   ar
     9     2     4    1
    10     4     5   ar
    11     5     6   ar
    12     6     7   ar
    13     7     8   ar
    14     8     9   ar
    15     2    10    1
    16    10    11   ar
    17    11    12   ar
    18    12    13   ar
    19    13    14   ar
    20    14    15   ar
    21    22    17   ar
    22     9     4   ar
    23    15    10   ar
    24     1     3    1
@<TRIPOS>MOLECULE
*****
 22 24 0 0 0
SMALL
GASTEIGER

@<TRIPOS>ATOM
      1 O         140.1388  140.9150  166.6926 O.3     1  UNL1       -0.3782
      2 C         141.4880  141.0102  166.0442 C.3     1  UNL1        0.1325
      3 H         139.5141  140.4973  166.0792 H       1  UNL1        0.2111
      4 C         142.1383  140.9995  167.3960 C.ar    1  UNL1        0.0251
      5 C         142.6277  142.2810  168.0029 C.ar    1  UNL1        0.0014
      6 C         143.2780  142.2704  169.3545 C.ar    1  UNL1        0.0204
      7 C         143.4389  140.9783  170.0992 C.ar    1  UNL1        0.0989
      8 N         142.9496  139.6969  169.4923 N.ar    1  UNL1       -0.2426
      9 C         142.2993  139.7075  168.1406 C.ar    1  UNL1        0.0971
     10 C         142.8373  141.1053  165.3959 C.ar    1  UNL1        0.0251
     11 C         143.4564  142.4486  165.1463 C.ar    1  UNL1        0.0014
     12 C         144.8058  142.5437  164.4980 C.ar    1  UNL1        0.0204
     13 C         145.5359  141.2956  164.0992 C.ar    1  UNL1        0.0989
     14 N         144.9168  139.9523  164.3488 N.ar    1  UNL1       -0.2426
     15 C         143.5675  139.8572  164.9971 C.ar    1  UNL1        0.0971
     16 C         140.8378  141.0208  164.6926 C.3     1  UNL1        0.0618
     17 C         139.8236  142.0737  164.3564 C.ar    1  UNL1       -0.0192
     18 C         138.5833  141.7052  163.5977 C.ar    1  UNL1       -0.0042
     19 C         137.5691  142.7580  163.2616 C.ar    1  UNL1       -0.0003
     20 C         137.7953  144.1794  163.6842 C.ar    1  UNL1       -0.0000
     21 C         139.0357  144.5479  164.4429 C.ar    1  UNL1       -0.0003
     22 C         140.0498  143.4950  164.7790 C.ar    1  UNL1       -0.0042
@<TRIPOS>BOND
     1     1     2    1
     2     2    16    1
     3    16    17    1
     4    17    18   ar
     5    18    19   ar
     6    19    20   ar
     7    20    21   ar
     8    21    22   ar
     9     2     4    1
    10     4     5   ar
    11     5     6   ar
    12     6     7   ar
    13     7     8   ar
    14     8     9   ar
    15     2    10    1
    16    10    11   ar
    17    11    12   ar
    18    12    13   ar
    19    13    14   ar
    20    14    15   ar
    21    22    17   ar
    22     9     4   ar
    23    15    10   ar
    24     1     3    1
