@<TRIPOS>MOLECULE
*****
 32 35 0 0 0
SMALL
GASTEIGER

@<TRIPOS>ATOM
      1 C         143.7012  137.0251  156.0295 C.2     1  UNL1        0.2494
      2 O         144.9892  137.4625  155.3972 O.2     1  UNL1       -0.2699
      3 N         142.9117  137.9877  156.8661 N.am    1  UNL1       -0.2660
      4 C         141.6236  137.5503  157.4985 C.3     1  UNL1        0.1160
      5 C         140.8341  138.5129  158.3351 C.3     1  UNL1        0.1197
      6 N         141.3325  139.9128  158.5395 N.am    1  UNL1       -0.2555
      7 C         142.6205  140.3502  157.9072 C.2     1  UNL1        0.2497
      8 O         143.1189  141.7501  158.1116 O.2     1  UNL1       -0.2727
      9 C         143.4101  139.3876  157.0705 C.3     1  UNL1        0.1799
     10 C         141.7076  131.4254  155.2120 C.3     1  UNL1        0.0310
     11 C         142.2060  132.8253  155.4164 C.ar    1  UNL1       -0.0218
     12 C         141.9830  133.8630  154.3565 C.ar    1  UNL1       -0.0041
     13 C         142.4814  135.2630  154.5609 C.ar    1  UNL1        0.0042
     14 C         143.2028  135.6252  155.8251 C.ar    1  UNL1        0.0536
     15 C         143.4258  134.5874  156.8850 C.ar    1  UNL1        0.0042
     16 C         142.9274  133.1875  156.6806 C.ar    1  UNL1       -0.0041
     17 C         140.5429  140.8754  159.3762 C.ar    1  UNL1        0.0541
     18 C         139.4291  141.6676  158.7583 C.ar    1  UNL1        0.0180
     19 C         138.6396  142.6302  159.5950 C.ar    1  UNL1        0.0382
     20 C         138.9638  142.8005  161.0496 C.ar    1  UNL1        0.1386
     21 C         140.0776  142.0083  161.6675 C.ar    1  UNL1        0.0382
     22 C         140.8671  141.0458  160.8308 C.ar    1  UNL1        0.0180
     23 O         138.1742  143.7631  161.8863 O.3     1  UNL1       -0.4754
     24 C         137.6313  143.3307  163.2160 C.3     1  UNL1        0.2068
     25 C         138.1995  143.9040  164.4803 C.3     1  UNL1        0.0646
     26 C         139.2846  144.9375  164.4139 C.3     1  UNL1        0.0759
     27 N         140.7207  144.5128  164.3298 N.3     1  UNL1       -0.2726
     28 C         141.6984  145.3270  163.5352 C.3     1  UNL1        0.0721
     29 C         143.1345  144.9023  163.4511 C.3     1  UNL1        0.0174
     30 C         143.5931  143.6634  164.1617 C.3     1  UNL1        0.0029
     31 C         142.6155  142.8492  164.9563 C.3     1  UNL1        0.0174
     32 C         141.1793  143.2739  165.0404 C.3     1  UNL1        0.0721
@<TRIPOS>BOND
     1    10    11    1
     2    11    12   ar
     3    12    13   ar
     4    13    14   ar
     5    14     1    1
     6     1     2    2
     7     1     3   am
     8     3     4    1
     9     4     5    1
    10     5     6    1
    11     6    17    1
    12    17    18   ar
    13    18    19   ar
    14    19    20   ar
    15    20    23    1
    16    23    24    1
    17    24    25    1
    18    25    26    1
    19    26    27    1
    20    27    28    1
    21    28    29    1
    22    29    30    1
    23    30    31    1
    24    31    32    1
    25    20    21   ar
    26    21    22   ar
    27     6     7   am
    28     7     8    2
    29     7     9    1
    30    14    15   ar
    31    15    16   ar
    32    16    11   ar
    33     9     3    1
    34    22    17   ar
    35    32    27    1
@<TRIPOS>MOLECULE
*****
 32 35 0 0 0
SMALL
GASTEIGER

@<TRIPOS>ATOM
      1 C         143.7147  137.0652  156.0086 C.2     1  UNL1        0.2494
      2 O         144.9999  137.4795  155.3555 O.2     1  UNL1       -0.2699
      3 N         142.9435  138.0489  156.8376 N.am    1  UNL1       -0.2660
      4 C         141.6582  137.6346  157.4907 C.3     1  UNL1        0.1160
      5 C         140.8870  138.6184  158.3197 C.3     1  UNL1        0.1197
      6 N         141.4009  140.0165  158.4957 N.am    1  UNL1       -0.2555
      7 C         142.6861  140.4309  157.8426 C.2     1  UNL1        0.2497
      8 O         143.2001  141.8291  158.0186 O.2     1  UNL1       -0.2727
      9 C         143.4574  139.4471  157.0135 C.3     1  UNL1        0.1799
     10 C         141.6589  131.4725  155.3047 C.3     1  UNL1        0.0310
     11 C         142.1729  132.8706  155.4807 C.ar    1  UNL1       -0.0218
     12 C         141.8833  133.9125  154.4412 C.ar    1  UNL1       -0.0041
     13 C         142.3972  135.3107  154.6172 C.ar    1  UNL1        0.0042
     14 C         143.2008  135.6670  155.8326 C.ar    1  UNL1        0.0536
     15 C         143.4903  134.6251  156.8721 C.ar    1  UNL1        0.0042
     16 C         142.9764  133.2269  156.6961 C.ar    1  UNL1       -0.0041
     17 C         140.6296  141.0003  159.3247 C.ar    1  UNL1        0.0541
     18 C         141.1670  141.4466  160.6521 C.ar    1  UNL1        0.0180
     19 C         140.3957  142.4303  161.4811 C.ar    1  UNL1        0.0382
     20 C         139.0870  142.9678  160.9827 C.ar    1  UNL1        0.1386
     21 C         138.5496  142.5216  159.6553 C.ar    1  UNL1        0.0382
     22 C         139.3209  141.5378  158.8263 C.ar    1  UNL1        0.0180
     23 O         138.3157  143.9516  161.8118 O.3     1  UNL1       -0.4754
     24 C         138.1995  143.7548  163.2942 C.3     1  UNL1        0.2068
     25 C         137.4433  142.5789  163.8377 C.3     1  UNL1        0.0646
     26 C         138.1869  141.4043  164.4011 C.3     1  UNL1        0.0759
     27 N         138.5979  140.2758  163.5025 N.3     1  UNL1       -0.2726
     28 C         139.8508  139.5038  163.7932 C.3     1  UNL1        0.0721
     29 C         140.2618  138.3752  162.8947 C.3     1  UNL1        0.0174
     30 C         139.4201  138.0187  161.7055 C.3     1  UNL1        0.0029
     31 C         138.1673  138.7906  161.4147 C.3     1  UNL1        0.0174
     32 C         137.7562  139.9192  162.3133 C.3     1  UNL1        0.0721
@<TRIPOS>BOND
     1    10    11    1
     2    11    12   ar
     3    12    13   ar
     4    13    14   ar
     5    14     1    1
     6     1     2    2
     7     1     3   am
     8     3     4    1
     9     4     5    1
    10     5     6    1
    11     6    17    1
    12    17    18   ar
    13    18    19   ar
    14    19    20   ar
    15    20    23    1
    16    23    24    1
    17    24    25    1
    18    25    26    1
    19    26    27    1
    20    27    28    1
    21    28    29    1
    22    29    30    1
    23    30    31    1
    24    31    32    1
    25    20    21   ar
    26    21    22   ar
    27     6     7   am
    28     7     8    2
    29     7     9    1
    30    14    15   ar
    31    15    16   ar
    32    16    11   ar
    33     9     3    1
    34    22    17   ar
    35    32    27    1
@<TRIPOS>MOLECULE
*****
 32 35 0 0 0
SMALL
GASTEIGER

@<TRIPOS>ATOM
      1 C         139.6516  139.7148  167.1536 C.2     1  UNL1        0.2494
      2 O         138.4289  139.0950  167.7625 O.2     1  UNL1       -0.2699
      3 N         139.9653  139.4873  165.7045 N.am    1  UNL1       -0.2660
      4 C         141.1881  140.1071  165.0955 C.3     1  UNL1        0.1160
      5 C         141.5018  139.8796  163.6465 C.3     1  UNL1        0.1197
      6 N         140.5928  139.0323  162.8064 N.am    1  UNL1       -0.2555
      7 C         139.3701  138.4125  163.4153 C.2     1  UNL1        0.2497
      8 O         138.4612  137.5651  162.5752 O.2     1  UNL1       -0.2727
      9 C         139.0564  138.6400  164.8644 C.3     1  UNL1        0.1799
     10 C         143.2875  143.1042  170.5140 C.3     1  UNL1        0.0310
     11 C         142.3785  142.2568  169.6739 C.ar    1  UNL1       -0.0218
     12 C         141.2099  142.8805  168.9701 C.ar    1  UNL1       -0.0041
     13 C         140.3010  142.0332  168.1300 C.ar    1  UNL1        0.0042
     14 C         140.5606  140.5622  167.9937 C.ar    1  UNL1        0.0536
     15 C         141.7292  139.9385  168.6974 C.ar    1  UNL1        0.0042
     16 C         142.6382  140.7858  169.5375 C.ar    1  UNL1       -0.0041
     17 C         140.9066  138.8047  161.3572 C.ar    1  UNL1        0.0541
     18 C         142.1371  138.0407  160.9673 C.ar    1  UNL1        0.0180
     19 C         142.4508  137.8132  159.5182 C.ar    1  UNL1        0.0382
     20 C         141.5340  138.3498  158.4591 C.ar    1  UNL1        0.1386
     21 C         140.3035  139.1138  158.8491 C.ar    1  UNL1        0.0382
     22 C         139.9898  139.3413  160.2982 C.ar    1  UNL1        0.0180
     23 O         141.8478  138.1223  157.0100 O.3     1  UNL1       -0.4754
     24 C         143.2416  137.7576  156.5927 C.3     1  UNL1        0.2068
     25 C         143.5325  136.3816  156.0713 C.3     1  UNL1        0.0646
     26 C         142.9007  135.1850  156.7188 C.3     1  UNL1        0.0759
     27 N         143.5806  133.8497  156.6520 N.3     1  UNL1       -0.2726
     28 C         143.4439  132.9991  155.4240 C.3     1  UNL1        0.0721
     29 C         144.1238  131.6637  155.3572 C.3     1  UNL1        0.0174
     30 C         144.9403  131.1788  156.5184 C.3     1  UNL1        0.0029
     31 C         145.0769  132.0293  157.7463 C.3     1  UNL1        0.0174
     32 C         144.3971  133.3648  157.8132 C.3     1  UNL1        0.0721
@<TRIPOS>BOND
     1    10    11    1
     2    11    12   ar
     3    12    13   ar
     4    13    14   ar
     5    14     1    1
     6     1     2    2
     7     1     3   am
     8     3     4    1
     9     4     5    1
    10     5     6    1
    11     6    17    1
    12    17    18   ar
    13    18    19   ar
    14    19    20   ar
    15    20    23    1
    16    23    24    1
    17    24    25    1
    18    25    26    1
    19    26    27    1
    20    27    28    1
    21    28    29    1
    22    29    30    1
    23    30    31    1
    24    31    32    1
    25    20    21   ar
    26    21    22   ar
    27     6     7   am
    28     7     8    2
    29     7     9    1
    30    14    15   ar
    31    15    16   ar
    32    16    11   ar
    33     9     3    1
    34    22    17   ar
    35    32    27    1
@<TRIPOS>MOLECULE
*****
 32 35 0 0 0
SMALL
GASTEIGER

@<TRIPOS>ATOM
      1 C         143.3947  136.9455  155.7504 C.2     1  UNL1        0.2494
      2 O         144.8458  137.3229  155.7080 O.2     1  UNL1       -0.2699
      3 N         142.4774  137.6030  156.7384 N.am    1  UNL1       -0.2660
      4 C         141.0262  137.2257  156.7808 C.3     1  UNL1        0.1160
      5 C         140.1089  137.8831  157.7689 C.3     1  UNL1        0.1197
      6 N         140.6427  138.9179  158.7145 N.am    1  UNL1       -0.2555
      7 C         142.0938  139.2952  158.6722 C.2     1  UNL1        0.2497
      8 O         142.6276  140.3300  159.6178 O.2     1  UNL1       -0.2727
      9 C         143.0112  138.6378  157.6841 C.3     1  UNL1        0.1799
     10 C         141.2595  132.8064  151.9677 C.3     1  UNL1        0.0310
     11 C         141.7933  133.8412  152.9134 C.ar    1  UNL1       -0.0218
     12 C         142.4415  133.4194  154.1986 C.ar    1  UNL1       -0.0041
     13 C         142.9753  134.4542  155.1443 C.ar    1  UNL1        0.0042
     14 C         142.8609  135.9108  154.8047 C.ar    1  UNL1        0.0536
     15 C         142.2127  136.3325  153.5195 C.ar    1  UNL1        0.0042
     16 C         141.6789  135.2977  152.5738 C.ar    1  UNL1       -0.0041
     17 C         139.7253  139.5754  159.7026 C.ar    1  UNL1        0.0541
     18 C         139.0438  138.7529  160.7557 C.ar    1  UNL1        0.0180
     19 C         138.1265  139.4104  161.7437 C.ar    1  UNL1        0.0382
     20 C         137.8906  140.8903  161.6786 C.ar    1  UNL1        0.1386
     21 C         138.5721  141.7127  160.6255 C.ar    1  UNL1        0.0382
     22 C         139.4894  141.0553  159.6375 C.ar    1  UNL1        0.0180
     23 O         136.9732  141.5478  162.6667 O.3     1  UNL1       -0.4754
     24 C         137.4283  142.7628  163.4193 C.3     1  UNL1        0.2068
     25 C         138.0877  142.6124  164.7581 C.3     1  UNL1        0.0646
     26 C         139.4505  141.9934  164.8576 C.3     1  UNL1        0.0759
     27 N         139.5997  140.5010  164.8357 N.3     1  UNL1       -0.2726
     28 C         140.8279  139.8788  164.2403 C.3     1  UNL1        0.0721
     29 C         140.9772  138.3864  164.2184 C.3     1  UNL1        0.0174
     30 C         139.8983  137.5162  164.7917 C.3     1  UNL1        0.0029
     31 C         138.6701  138.1384  165.3871 C.3     1  UNL1        0.0174
     32 C         138.5208  139.6309  165.4090 C.3     1  UNL1        0.0721
@<TRIPOS>BOND
     1    10    11    1
     2    11    12   ar
     3    12    13   ar
     4    13    14   ar
     5    14     1    1
     6     1     2    2
     7     1     3   am
     8     3     4    1
     9     4     5    1
    10     5     6    1
    11     6    17    1
    12    17    18   ar
    13    18    19   ar
    14    19    20   ar
    15    20    23    1
    16    23    24    1
    17    24    25    1
    18    25    26    1
    19    26    27    1
    20    27    28    1
    21    28    29    1
    22    29    30    1
    23    30    31    1
    24    31    32    1
    25    20    21   ar
    26    21    22   ar
    27     6     7   am
    28     7     8    2
    29     7     9    1
    30    14    15   ar
    31    15    16   ar
    32    16    11   ar
    33     9     3    1
    34    22    17   ar
    35    32    27    1
@<TRIPOS>MOLECULE
*****
 32 35 0 0 0
SMALL
GASTEIGER

@<TRIPOS>ATOM
      1 C         143.2630  138.4794  157.0079 C.2     1  UNL1        0.2494
      2 O         143.8953  139.4706  156.0764 O.2     1  UNL1       -0.2699
      3 N         143.1333  138.7990  158.4677 N.am    1  UNL1       -0.2660
      4 C         142.5009  137.8077  159.3992 C.3     1  UNL1        0.1160
      5 C         142.3713  138.1273  160.8590 C.3     1  UNL1        0.1197
      6 N         142.8739  139.4381  161.3873 N.am    1  UNL1       -0.2555
      7 C         143.5062  140.4293  160.4559 C.2     1  UNL1        0.2497
      8 O         144.0089  141.7401  160.9842 O.2     1  UNL1       -0.2727
      9 C         143.6359  140.1098  158.9960 C.3     1  UNL1        0.1799
     10 C         141.2524  133.2361  154.8946 C.3     1  UNL1        0.0310
     11 C         141.7550  134.5469  155.4229 C.ar    1  UNL1       -0.0218
     12 C         140.8391  135.7334  155.4801 C.ar    1  UNL1       -0.0041
     13 C         141.3417  137.0442  156.0084 C.ar    1  UNL1        0.0042
     14 C         142.7603  137.1686  156.4796 C.ar    1  UNL1        0.0536
     15 C         143.6763  135.9821  156.4224 C.ar    1  UNL1        0.0042
     16 C         143.1736  134.6713  155.8940 C.ar    1  UNL1       -0.0041
     17 C         142.7442  139.7577  162.8472 C.ar    1  UNL1        0.0541
     18 C         143.4832  138.9379  163.8629 C.ar    1  UNL1        0.0180
     19 C         143.3534  139.2575  165.3227 C.ar    1  UNL1        0.0382
     20 C         142.4848  140.3969  165.7667 C.ar    1  UNL1        0.1386
     21 C         141.7458  141.2167  164.7510 C.ar    1  UNL1        0.0382
     22 C         141.8755  140.8971  163.2912 C.ar    1  UNL1        0.0180
     23 O         142.3551  140.7165  167.2266 O.3     1  UNL1       -0.4754
     24 C         141.2826  140.0613  168.0454 C.3     1  UNL1        0.2068
     25 C         139.8418  140.4017  167.8043 C.3     1  UNL1        0.0646
     26 C         138.9219  139.3838  167.1977 C.3     1  UNL1        0.0759
     27 N         138.9378  139.1468  165.7167 N.3     1  UNL1       -0.2726
     28 C         139.7289  138.0062  165.1481 C.3     1  UNL1        0.0721
     29 C         139.7447  137.7692  163.6670 C.3     1  UNL1        0.0174
     30 C         138.9695  138.6728  162.7545 C.3     1  UNL1        0.0029
     31 C         138.1785  139.8133  163.3231 C.3     1  UNL1        0.0174
     32 C         138.1626  140.0504  164.8042 C.3     1  UNL1        0.0721
@<TRIPOS>BOND
     1    10    11    1
     2    11    12   ar
     3    12    13   ar
     4    13    14   ar
     5    14     1    1
     6     1     2    2
     7     1     3   am
     8     3     4    1
     9     4     5    1
    10     5     6    1
    11     6    17    1
    12    17    18   ar
    13    18    19   ar
    14    19    20   ar
    15    20    23    1
    16    23    24    1
    17    24    25    1
    18    25    26    1
    19    26    27    1
    20    27    28    1
    21    28    29    1
    22    29    30    1
    23    30    31    1
    24    31    32    1
    25    20    21   ar
    26    21    22   ar
    27     6     7   am
    28     7     8    2
    29     7     9    1
    30    14    15   ar
    31    15    16   ar
    32    16    11   ar
    33     9     3    1
    34    22    17   ar
    35    32    27    1
@<TRIPOS>MOLECULE
*****
 32 35 0 0 0
SMALL
GASTEIGER

@<TRIPOS>ATOM
      1 C         139.6149  140.1696  167.1751 C.2     1  UNL1        0.2494
      2 O         138.6730  139.1740  167.7844 O.2     1  UNL1       -0.2699
      3 N         139.6076  140.3992  165.6928 N.am    1  UNL1       -0.2660
      4 C         140.5497  141.3949  165.0834 C.3     1  UNL1        0.1160
      5 C         140.5423  141.6245  163.6011 C.3     1  UNL1        0.1197
      6 N         139.5930  140.8584  162.7281 N.am    1  UNL1       -0.2555
      7 C         138.6511  139.8628  163.3375 C.2     1  UNL1        0.2497
      8 O         137.7018  139.0968  162.4646 O.2     1  UNL1       -0.2727
      9 C         138.6583  139.6332  164.8198 C.3     1  UNL1        0.1799
     10 C         143.4121  143.2338  170.6668 C.3     1  UNL1        0.0310
     11 C         142.4628  142.4678  169.7938 C.ar    1  UNL1       -0.0218
     12 C         142.8792  141.1515  169.2073 C.ar    1  UNL1       -0.0041
     13 C         141.9299  140.3855  168.3344 C.ar    1  UNL1        0.0042
     14 C         140.5642  140.9357  168.0480 C.ar    1  UNL1        0.0536
     15 C         140.1478  142.2520  168.6345 C.ar    1  UNL1        0.0042
     16 C         141.0971  143.0180  169.5074 C.ar    1  UNL1       -0.0041
     17 C         139.5858  141.0881  161.2458 C.ar    1  UNL1        0.0541
     18 C         140.4691  140.2657  160.3551 C.ar    1  UNL1        0.0180
     19 C         140.4618  140.4954  158.8729 C.ar    1  UNL1        0.0382
     20 C         139.5711  141.5473  158.2813 C.ar    1  UNL1        0.1386
     21 C         138.6878  142.3697  159.1719 C.ar    1  UNL1        0.0382
     22 C         138.6951  142.1400  160.6542 C.ar    1  UNL1        0.0180
     23 O         139.5639  141.7770  156.7989 O.3     1  UNL1       -0.4754
     24 C         140.7740  142.3500  156.1228 C.3     1  UNL1        0.2068
     25 C         140.9970  143.8333  156.1152 C.3     1  UNL1        0.0646
     26 C         142.0447  144.4388  157.0016 C.3     1  UNL1        0.0759
     27 N         141.8599  144.4372  158.4902 N.3     1  UNL1       -0.2726
     28 C         140.8809  145.3795  159.1255 C.3     1  UNL1        0.0721
     29 C         140.6962  145.3779  160.6141 C.3     1  UNL1        0.0174
     30 C         141.4904  144.4339  161.4674 C.3     1  UNL1        0.0029
     31 C         142.4694  143.4916  160.8321 C.3     1  UNL1        0.0174
     32 C         142.6542  143.4932  159.3435 C.3     1  UNL1        0.0721
@<TRIPOS>BOND
     1    10    11    1
     2    11    12   ar
     3    12    13   ar
     4    13    14   ar
     5    14     1    1
     6     1     2    2
     7     1     3   am
     8     3     4    1
     9     4     5    1
    10     5     6    1
    11     6    17    1
    12    17    18   ar
    13    18    19   ar
    14    19    20   ar
    15    20    23    1
    16    23    24    1
    17    24    25    1
    18    25    26    1
    19    26    27    1
    20    27    28    1
    21    28    29    1
    22    29    30    1
    23    30    31    1
    24    31    32    1
    25    20    21   ar
    26    21    22   ar
    27     6     7   am
    28     7     8    2
    29     7     9    1
    30    14    15   ar
    31    15    16   ar
    32    16    11   ar
    33     9     3    1
    34    22    17   ar
    35    32    27    1
@<TRIPOS>MOLECULE
*****
 32 35 0 0 0
SMALL
GASTEIGER

@<TRIPOS>ATOM
      1 C         140.0425  141.3442  158.1555 C.2     1  UNL1        0.2494
      2 O         138.9489  142.0192  157.3819 O.2     1  UNL1       -0.2699
      3 N         139.8682  141.0746  159.6207 N.am    1  UNL1       -0.2660
      4 C         140.9618  140.3996  160.3944 C.3     1  UNL1        0.1160
      5 C         140.7876  140.1300  161.8596 C.3     1  UNL1        0.1197
      6 N         139.5198  140.5353  162.5512 N.am    1  UNL1       -0.2555
      7 C         138.4262  141.2103  161.7776 C.2     1  UNL1        0.2497
      8 O         137.1584  141.6156  162.4693 O.2     1  UNL1       -0.2727
      9 C         138.6004  141.4799  160.3123 C.3     1  UNL1        0.1799
     10 C         145.1137  139.7228  155.3889 C.3     1  UNL1        0.0310
     11 C         143.8459  140.1282  156.0806 C.ar    1  UNL1       -0.0218
     12 C         143.7268  141.4944  156.6882 C.ar    1  UNL1       -0.0041
     13 C         142.4590  141.8997  157.3799 C.ar    1  UNL1        0.0042
     14 C         141.3103  140.9389  157.4638 C.ar    1  UNL1        0.0536
     15 C         141.4293  139.5727  156.8562 C.ar    1  UNL1        0.0042
     16 C         142.6971  139.1673  156.1646 C.ar    1  UNL1       -0.0041
     17 C         139.3456  140.2656  164.0165 C.ar    1  UNL1        0.0541
     18 C         138.8436  138.9299  164.4788 C.ar    1  UNL1        0.0180
     19 C         138.6694  138.6603  165.9440 C.ar    1  UNL1        0.0382
     20 C         138.9972  139.7264  166.9469 C.ar    1  UNL1        0.1386
     21 C         139.4992  141.0622  166.4847 C.ar    1  UNL1        0.0382
     22 C         139.6734  141.3318  165.0194 C.ar    1  UNL1        0.0180
     23 O         138.8230  139.4568  168.4122 O.3     1  UNL1       -0.4754
     24 C         139.3472  140.4341  169.4222 C.3     1  UNL1        0.2068
     25 C         140.5872  140.1134  170.2028 C.3     1  UNL1        0.0646
     26 C         141.7711  139.5033  169.5127 C.3     1  UNL1        0.0759
     27 N         142.3181  140.1317  168.2653 N.3     1  UNL1       -0.2726
     28 C         142.5865  141.6070  168.2243 C.3     1  UNL1        0.0721
     29 C         143.1334  142.2354  166.9770 C.3     1  UNL1        0.0174
     30 C         143.4121  141.3886  165.7706 C.3     1  UNL1        0.0029
     31 C         143.1438  139.9134  165.8116 C.3     1  UNL1        0.0174
     32 C         142.5968  139.2849  167.0590 C.3     1  UNL1        0.0721
@<TRIPOS>BOND
     1    10    11    1
     2    11    12   ar
     3    12    13   ar
     4    13    14   ar
     5    14     1    1
     6     1     2    2
     7     1     3   am
     8     3     4    1
     9     4     5    1
    10     5     6    1
    11     6    17    1
    12    17    18   ar
    13    18    19   ar
    14    19    20   ar
    15    20    23    1
    16    23    24    1
    17    24    25    1
    18    25    26    1
    19    26    27    1
    20    27    28    1
    21    28    29    1
    22    29    30    1
    23    30    31    1
    24    31    32    1
    25    20    21   ar
    26    21    22   ar
    27     6     7   am
    28     7     8    2
    29     7     9    1
    30    14    15   ar
    31    15    16   ar
    32    16    11   ar
    33     9     3    1
    34    22    17   ar
    35    32    27    1
@<TRIPOS>MOLECULE
*****
 32 35 0 0 0
SMALL
GASTEIGER

@<TRIPOS>ATOM
      1 C         142.4862  139.4423  166.9139 C.2     1  UNL1        0.2494
      2 O         143.5368  138.4928  167.4084 O.2     1  UNL1       -0.2699
      3 N         142.1444  139.4885  165.4541 N.am    1  UNL1       -0.2660
      4 C         141.0938  140.4380  164.9594 C.3     1  UNL1        0.1160
      5 C         140.7520  140.4842  163.4996 C.3     1  UNL1        0.1197
      6 N         141.4608  139.5809  162.5344 N.am    1  UNL1       -0.2555
      7 C         142.5114  138.6313  163.0290 C.2     1  UNL1        0.2497
      8 O         143.2202  137.7280  162.0638 O.2     1  UNL1       -0.2727
      9 C         142.8532  138.5851  164.4889 C.3     1  UNL1        0.1799
     10 C         139.6510  143.0557  170.7746 C.3     1  UNL1        0.0310
     11 C         140.3598  142.1523  169.8094 C.ar    1  UNL1       -0.0218
     12 C         141.6602  142.5814  169.1972 C.ar    1  UNL1       -0.0041
     13 C         142.3690  141.6780  168.2320 C.ar    1  UNL1        0.0042
     14 C         141.7774  140.3456  167.8790 C.ar    1  UNL1        0.0536
     15 C         140.4770  139.9166  168.4912 C.ar    1  UNL1        0.0042
     16 C         139.7682  140.8199  169.4564 C.ar    1  UNL1       -0.0041
     17 C         141.1190  139.6271  161.0746 C.ar    1  UNL1        0.0541
     18 C         139.9671  138.8233  160.5482 C.ar    1  UNL1        0.0180
     19 C         139.6253  138.8696  159.0884 C.ar    1  UNL1        0.0382
     20 C         140.4354  139.7196  158.1550 C.ar    1  UNL1        0.1386
     21 C         141.5873  140.5234  158.6814 C.ar    1  UNL1        0.0382
     22 C         141.9291  140.4771  160.1412 C.ar    1  UNL1        0.0180
     23 O         140.0936  139.7658  156.6952 O.3     1  UNL1       -0.4754
     24 C         139.3706  140.9530  156.1314 C.3     1  UNL1        0.2068
     25 C         138.0304  141.3447  156.6794 C.3     1  UNL1        0.0646
     26 C         137.8577  142.6682  157.3639 C.3     1  UNL1        0.0759
     27 N         138.6291  142.9726  158.6137 N.3     1  UNL1       -0.2726
     28 C         139.7851  143.9274  158.5678 C.3     1  UNL1        0.0721
     29 C         140.5566  144.2318  159.8177 C.3     1  UNL1        0.0174
     30 C         140.1720  143.5814  161.1135 C.3     1  UNL1        0.0029
     31 C         139.0161  142.6266  161.1595 C.3     1  UNL1        0.0174
     32 C         138.2446  142.3222  159.9095 C.3     1  UNL1        0.0721
@<TRIPOS>BOND
     1    10    11    1
     2    11    12   ar
     3    12    13   ar
     4    13    14   ar
     5    14     1    1
     6     1     2    2
     7     1     3   am
     8     3     4    1
     9     4     5    1
    10     5     6    1
    11     6    17    1
    12    17    18   ar
    13    18    19   ar
    14    19    20   ar
    15    20    23    1
    16    23    24    1
    17    24    25    1
    18    25    26    1
    19    26    27    1
    20    27    28    1
    21    28    29    1
    22    29    30    1
    23    30    31    1
    24    31    32    1
    25    20    21   ar
    26    21    22   ar
    27     6     7   am
    28     7     8    2
    29     7     9    1
    30    14    15   ar
    31    15    16   ar
    32    16    11   ar
    33     9     3    1
    34    22    17   ar
    35    32    27    1
@<TRIPOS>MOLECULE
*****
 32 35 0 0 0
SMALL
GASTEIGER

@<TRIPOS>ATOM
      1 C         142.6408  139.4708  166.8642 C.2     1  UNL1        0.2494
      2 O         143.6185  138.4524  167.3709 O.2     1  UNL1       -0.2699
      3 N         142.3897  139.6015  165.3912 N.am    1  UNL1       -0.2660
      4 C         141.4120  140.6201  164.8844 C.3     1  UNL1        0.1160
      5 C         141.1610  140.7507  163.4114 C.3     1  UNL1        0.1197
      6 N         141.8876  139.8630  162.4451 N.am    1  UNL1       -0.2555
      7 C         142.8653  138.8445  162.9517 C.2     1  UNL1        0.2497
      8 O         143.5920  137.9567  161.9854 O.2     1  UNL1       -0.2727
      9 C         143.1164  138.7137  164.4248 C.3     1  UNL1        0.1799
     10 C         139.7342  143.0220  170.7296 C.3     1  UNL1        0.0310
     11 C         140.4609  142.1342  169.7632 C.ar    1  UNL1       -0.0218
     12 C         139.8545  140.8282  169.3429 C.ar    1  UNL1       -0.0041
     13 C         140.5811  139.9404  168.3766 C.ar    1  UNL1        0.0042
     14 C         141.9141  140.3586  167.8305 C.ar    1  UNL1        0.0536
     15 C         142.5205  141.6646  168.2509 C.ar    1  UNL1        0.0042
     16 C         141.7938  142.5524  169.2172 C.ar    1  UNL1       -0.0041
     17 C         141.6365  139.9937  160.9720 C.ar    1  UNL1        0.0541
     18 C         140.6776  139.0641  160.2892 C.ar    1  UNL1        0.0180
     19 C         140.4265  139.1948  158.8162 C.ar    1  UNL1        0.0382
     20 C         141.1344  140.2552  158.0259 C.ar    1  UNL1        0.1386
     21 C         142.0934  141.1848  158.7087 C.ar    1  UNL1        0.0382
     22 C         142.3444  141.0541  160.1817 C.ar    1  UNL1        0.0180
     23 O         140.8833  140.3859  156.5528 O.3     1  UNL1       -0.4754
     24 C         139.5922  140.9700  156.0610 C.3     1  UNL1        0.2068
     25 C         139.3497  142.4466  156.1640 C.3     1  UNL1        0.0646
     26 C         138.4419  142.9850  157.2300 C.3     1  UNL1        0.0759
     27 N         138.9710  143.2303  158.6120 N.3     1  UNL1       -0.2726
     28 C         138.4715  142.4084  159.7632 C.3     1  UNL1        0.0721
     29 C         139.0005  142.6537  161.1451 C.3     1  UNL1        0.0174
     30 C         140.0290  143.7209  161.3761 C.3     1  UNL1        0.0029
     31 C         140.5285  144.5428  160.2250 C.3     1  UNL1        0.0174
     32 C         139.9995  144.2975  158.8429 C.3     1  UNL1        0.0721
@<TRIPOS>BOND
     1    10    11    1
     2    11    12   ar
     3    12    13   ar
     4    13    14   ar
     5    14     1    1
     6     1     2    2
     7     1     3   am
     8     3     4    1
     9     4     5    1
    10     5     6    1
    11     6    17    1
    12    17    18   ar
    13    18    19   ar
    14    19    20   ar
    15    20    23    1
    16    23    24    1
    17    24    25    1
    18    25    26    1
    19    26    27    1
    20    27    28    1
    21    28    29    1
    22    29    30    1
    23    30    31    1
    24    31    32    1
    25    20    21   ar
    26    21    22   ar
    27     6     7   am
    28     7     8    2
    29     7     9    1
    30    14    15   ar
    31    15    16   ar
    32    16    11   ar
    33     9     3    1
    34    22    17   ar
    35    32    27    1
