@<TRIPOS>MOLECULE
*****
 28 31 0 0 0
SMALL
GASTEIGER

@<TRIPOS>ATOM
      1 C         141.6981  140.8205  165.1342 C.ar    1  UNL1        0.1698
      2 C         142.9414  141.4036  164.5307 C.ar    1  UNL1        0.1116
      3 C         143.8481  142.2611  165.3630 C.ar    1  UNL1        0.1565
      4 F         145.0915  142.8441  164.7594 F       1  UNL1       -0.2028
      5 C         143.5116  142.5354  166.7987 C.ar    1  UNL1        0.0357
      6 C         142.2683  141.9524  167.4022 C.ar    1  UNL1        0.0601
      7 C         141.9317  142.2267  168.8380 C.ar    1  UNL1        0.1997
      8 O         142.8384  143.0842  169.6703 O.2     1  UNL1       -0.2864
      9 C         140.6884  141.6437  169.4415 C.ar    1  UNL1        0.0701
     10 C         139.7817  140.7862  168.6092 C.ar    1  UNL1        0.0802
     11 N         140.1182  140.5118  167.1735 N.ar    1  UNL1       -0.3253
     12 C         141.3616  141.0949  166.5699 C.ar    1  UNL1        0.0987
     13 N         143.2781  141.1292  163.0949 N.pl3   1  UNL1       -0.3006
     14 C         143.7849  139.7773  162.6886 C.3     1  UNL1        0.1080
     15 C         144.1216  139.5029  161.2527 C.3     1  UNL1        0.0903
     16 N         143.9513  140.5805  160.2234 N.3     1  UNL1       -0.2957
     17 C         143.4444  141.9326  160.6298 C.3     1  UNL1        0.0741
     18 C         143.2741  143.0103  159.6004 C.3     1  UNL1        0.0189
     19 C         143.1078  142.2069  162.0655 C.3     1  UNL1        0.1066
     20 H         143.3014  140.2203  159.5246 H       1  UNL1        0.1233
     21 C         140.3518  141.9180  170.8773 C.2     1  UNL1        0.0774
     22 O         139.5628  143.1405  171.2423 O.co2   1  UNL1       -0.5444
     23 O         140.8041  140.9700  171.9481 O.co2   1  UNL1       -0.5444
     24 C         139.2115  139.6544  166.3412 C.3     1  UNL1        0.0857
     25 C         138.8685  138.3198  165.7487 C.3     1  UNL1        0.0245
     26 C         137.9841  139.5039  165.4923 C.3     1  UNL1        0.0245
     27 C         140.1450  140.5283  163.0721 C.3     1  UNL1        0.2526
     28 O         140.7914  139.9631  164.3020 O.3     1  UNL1       -0.4686
@<TRIPOS>UNITY_ATOM_ATTR
22 1
charge -1
@<TRIPOS>BOND
     1    27    28    1
     2    28     1    1
     3     1     2   ar
     4     2    13    1
     5    13    14    1
     6    14    15    1
     7    15    16    1
     8    16    17    1
     9    17    18    1
    10    17    19    1
    11     2     3   ar
    12     3     4    1
    13     3     5   ar
    14     5     6   ar
    15     6     7   ar
    16     7     8    2
    17     7     9   ar
    18     9    21    1
    19    21    22   ar
    20    21    23   ar
    21     9    10   ar
    22    10    11   ar
    23    11    24    1
    24    24    25    1
    25    25    26    1
    26    11    12   ar
    27    12     1   ar
    28    19    13    1
    29    12     6   ar
    30    26    24    1
    31    16    20    1
@<TRIPOS>MOLECULE
*****
 28 31 0 0 0
SMALL
GASTEIGER

@<TRIPOS>ATOM
      1 C         141.3948  141.5095  164.7809 C.ar    1  UNL1        0.1698
      2 C         142.2190  142.5119  164.0287 C.ar    1  UNL1        0.1116
      3 C         143.3027  143.2724  164.7340 C.ar    1  UNL1        0.1565
      4 F         144.1269  144.2748  163.9817 F       1  UNL1       -0.2028
      5 C         143.5621  143.0304  166.1914 C.ar    1  UNL1        0.0357
      6 C         142.7380  142.0280  166.9435 C.ar    1  UNL1        0.0601
      7 C         142.9974  141.7860  168.4010 C.ar    1  UNL1        0.1997
      8 O         144.0811  142.5465  169.1063 O.2     1  UNL1       -0.2864
      9 C         142.1732  140.7836  169.1532 C.ar    1  UNL1        0.0701
     10 C         141.0896  140.0231  168.4480 C.ar    1  UNL1        0.0802
     11 N         140.8301  140.2650  166.9905 N.ar    1  UNL1       -0.3253
     12 C         141.6543  141.2675  166.2383 C.ar    1  UNL1        0.0987
     13 N         141.9596  142.7539  162.5712 N.pl3   1  UNL1       -0.3006
     14 C         142.3852  141.7364  161.5546 C.3     1  UNL1        0.1080
     15 C         142.1257  141.9784  160.0971 C.3     1  UNL1        0.0903
     16 N         141.4407  143.2379  159.6563 N.3     1  UNL1       -0.2957
     17 C         141.0151  144.2554  160.6730 C.3     1  UNL1        0.0741
     18 C         140.3300  145.5150  160.2322 C.3     1  UNL1        0.0189
     19 C         141.2745  144.0134  162.1304 C.3     1  UNL1        0.1066
     20 H         140.5998  142.9551  159.1530 H       1  UNL1        0.1233
     21 C         142.4327  140.5416  170.6107 C.2     1  UNL1        0.0774
     22 O         143.5113  139.5882  171.0323 O.co2   1  UNL1       -0.5444
     23 O         141.6135  141.2529  171.6465 O.co2   1  UNL1       -0.5444
     24 C         139.7464  139.5045  166.2853 C.3     1  UNL1        0.0857
     25 C         139.3233  138.3936  165.3707 C.3     1  UNL1        0.0245
     26 C         138.2928  139.2984  165.9784 C.3     1  UNL1        0.0245
     27 C         139.1635  141.4850  163.4503 C.3     1  UNL1        0.2526
     28 O         140.3112  140.7490  164.0756 O.3     1  UNL1       -0.4686
@<TRIPOS>UNITY_ATOM_ATTR
22 1
charge -1
@<TRIPOS>BOND
     1    27    28    1
     2    28     1    1
     3     1     2   ar
     4     2    13    1
     5    13    14    1
     6    14    15    1
     7    15    16    1
     8    16    17    1
     9    17    18    1
    10    17    19    1
    11     2     3   ar
    12     3     4    1
    13     3     5   ar
    14     5     6   ar
    15     6     7   ar
    16     7     8    2
    17     7     9   ar
    18     9    21    1
    19    21    22   ar
    20    21    23   ar
    21     9    10   ar
    22    10    11   ar
    23    11    24    1
    24    24    25    1
    25    25    26    1
    26    11    12   ar
    27    12     1   ar
    28    19    13    1
    29    12     6   ar
    30    26    24    1
    31    16    20    1
@<TRIPOS>MOLECULE
*****
 28 31 0 0 0
SMALL
GASTEIGER

@<TRIPOS>ATOM
      1 C         141.5417  142.6539  164.6283 C.ar    1  UNL1        0.1698
      2 C         142.7494  141.8682  165.0455 C.ar    1  UNL1        0.1116
      3 C         143.8734  141.6495  164.0766 C.ar    1  UNL1        0.1565
      4 F         145.0811  140.8638  164.4938 F       1  UNL1       -0.2028
      5 C         143.7896  142.2165  162.6904 C.ar    1  UNL1        0.0357
      6 C         142.5819  143.0022  162.2732 C.ar    1  UNL1        0.0601
      7 C         142.4981  143.5692  160.8870 C.ar    1  UNL1        0.1997
      8 O         143.6220  143.3505  159.9180 O.2     1  UNL1       -0.2864
      9 C         141.2904  144.3548  160.4698 C.ar    1  UNL1        0.0701
     10 C         140.1664  144.5735  161.4387 C.ar    1  UNL1        0.0802
     11 N         140.2501  144.0065  162.8249 N.ar    1  UNL1       -0.3253
     12 C         141.4579  143.2208  163.2422 C.ar    1  UNL1        0.0987
     13 N         142.8332  141.3012  166.4317 N.pl3   1  UNL1       -0.3006
     14 C         142.6842  139.8244  166.6483 C.3     1  UNL1        0.1080
     15 C         142.7680  139.2574  168.0345 C.3     1  UNL1        0.0903
     16 N         143.0008  140.1672  169.2041 N.3     1  UNL1       -0.2957
     17 C         143.1498  141.6440  168.9875 C.3     1  UNL1        0.0741
     18 C         143.3827  142.5539  170.1572 C.3     1  UNL1        0.0189
     19 C         143.0660  142.2110  167.6014 C.3     1  UNL1        0.1066
     20 H         143.8562  139.8486  169.6593 H       1  UNL1        0.1233
     21 C         141.2065  144.9219  159.0836 C.2     1  UNL1        0.0774
     22 O         142.2050  145.9454  158.6303 O.co2   1  UNL1       -0.5444
     23 O         140.1243  144.4653  158.1507 O.co2   1  UNL1       -0.5444
     24 C         139.1262  144.2252  163.7939 C.3     1  UNL1        0.0857
     25 C         138.5816  144.8907  165.0229 C.3     1  UNL1        0.0245
     26 C         137.7241  143.9385  164.2431 C.3     1  UNL1        0.0245
     27 C         139.6628  141.6990  166.1475 C.3     1  UNL1        0.2526
     28 O         140.4177  142.8725  165.5973 O.3     1  UNL1       -0.4686
@<TRIPOS>UNITY_ATOM_ATTR
22 1
charge -1
@<TRIPOS>BOND
     1    27    28    1
     2    28     1    1
     3     1     2   ar
     4     2    13    1
     5    13    14    1
     6    14    15    1
     7    15    16    1
     8    16    17    1
     9    17    18    1
    10    17    19    1
    11     2     3   ar
    12     3     4    1
    13     3     5   ar
    14     5     6   ar
    15     6     7   ar
    16     7     8    2
    17     7     9   ar
    18     9    21    1
    19    21    22   ar
    20    21    23   ar
    21     9    10   ar
    22    10    11   ar
    23    11    24    1
    24    24    25    1
    25    25    26    1
    26    11    12   ar
    27    12     1   ar
    28    19    13    1
    29    12     6   ar
    30    26    24    1
    31    16    20    1
@<TRIPOS>MOLECULE
*****
 28 31 0 0 0
SMALL
GASTEIGER

@<TRIPOS>ATOM
      1 C         140.9175  141.4016  165.3742 C.ar    1  UNL1        0.1698
      2 C         141.7976  141.6097  166.5710 C.ar    1  UNL1        0.1116
      3 C         142.9989  142.5025  166.4723 C.ar    1  UNL1        0.1565
      4 F         143.8789  142.7106  167.6692 F       1  UNL1       -0.2028
      5 C         143.3201  143.1872  165.1770 C.ar    1  UNL1        0.0357
      6 C         142.4401  142.9791  163.9803 C.ar    1  UNL1        0.0601
      7 C         142.7614  143.6638  162.6849 C.ar    1  UNL1        0.1997
      8 O         143.9627  144.5567  162.5863 O.2     1  UNL1       -0.2864
      9 C         141.8813  143.4557  161.4882 C.ar    1  UNL1        0.0701
     10 C         140.6800  142.5629  161.5868 C.ar    1  UNL1        0.0802
     11 N         140.3587  141.8782  162.8821 N.ar    1  UNL1       -0.3253
     12 C         141.2388  142.0863  164.0789 C.ar    1  UNL1        0.0987
     13 N         141.4763  140.9250  167.8664 N.pl3   1  UNL1       -0.3006
     14 C         140.2412  141.3035  168.6287 C.3     1  UNL1        0.1080
     15 C         139.9200  140.6188  169.9241 C.3     1  UNL1        0.0903
     16 N         140.8339  139.5555  170.4571 N.3     1  UNL1       -0.2957
     17 C         142.0691  139.1770  169.6948 C.3     1  UNL1        0.0741
     18 C         142.9830  138.1137  170.2278 C.3     1  UNL1        0.0189
     19 C         142.3903  139.8617  168.3994 C.3     1  UNL1        0.1066
     20 H         140.2751  138.7075  170.5523 H       1  UNL1        0.1233
     21 C         142.2026  144.1404  160.1928 C.2     1  UNL1        0.0774
     22 O         141.4874  145.4036  159.8146 O.co2   1  UNL1       -0.5444
     23 O         143.2389  143.5620  159.2755 O.co2   1  UNL1       -0.5444
     24 C         139.1574  140.9853  162.9807 C.3     1  UNL1        0.0857
     25 C         138.5004  139.6597  162.7339 C.3     1  UNL1        0.0245
     26 C         137.7338  140.7646  163.3984 C.3     1  UNL1        0.0245
     27 C         139.8875  139.0538  165.7949 C.3     1  UNL1        0.2526
     28 O         139.7162  140.5087  165.4729 O.3     1  UNL1       -0.4686
@<TRIPOS>UNITY_ATOM_ATTR
22 1
charge -1
@<TRIPOS>BOND
     1    27    28    1
     2    28     1    1
     3     1     2   ar
     4     2    13    1
     5    13    14    1
     6    14    15    1
     7    15    16    1
     8    16    17    1
     9    17    18    1
    10    17    19    1
    11     2     3   ar
    12     3     4    1
    13     3     5   ar
    14     5     6   ar
    15     6     7   ar
    16     7     8    2
    17     7     9   ar
    18     9    21    1
    19    21    22   ar
    20    21    23   ar
    21     9    10   ar
    22    10    11   ar
    23    11    24    1
    24    24    25    1
    25    25    26    1
    26    11    12   ar
    27    12     1   ar
    28    19    13    1
    29    12     6   ar
    30    26    24    1
    31    16    20    1
@<TRIPOS>MOLECULE
*****
 28 31 0 0 0
SMALL
GASTEIGER

@<TRIPOS>ATOM
      1 C         140.7418  141.5092  164.8376 C.ar    1  UNL1        0.1698
      2 C         139.7337  142.4128  164.1917 C.ar    1  UNL1        0.1116
      3 C         139.0732  143.4944  164.9941 C.ar    1  UNL1        0.1565
      4 F         138.0651  144.3980  164.3481 F       1  UNL1       -0.2028
      5 C         139.4207  143.6723  166.4423 C.ar    1  UNL1        0.0357
      6 C         140.4288  142.7687  167.0882 C.ar    1  UNL1        0.0601
      7 C         140.7764  142.9467  168.5366 C.ar    1  UNL1        0.1997
      8 O         140.1158  144.0282  169.3389 O.2     1  UNL1       -0.2864
      9 C         141.7844  142.0430  169.1824 C.ar    1  UNL1        0.0701
     10 C         142.4450  140.9614  168.3800 C.ar    1  UNL1        0.0802
     11 N         142.0975  140.7835  166.9318 N.ar    1  UNL1       -0.3253
     12 C         141.0893  141.6871  166.2858 C.ar    1  UNL1        0.0987
     13 N         139.3862  142.2348  162.7434 N.pl3   1  UNL1       -0.3006
     14 C         139.8686  143.2286  161.7287 C.3     1  UNL1        0.1080
     15 C         139.5211  143.0507  160.2804 C.3     1  UNL1        0.0903
     16 N         138.6910  141.8789  159.8468 N.3     1  UNL1       -0.2957
     17 C         138.2086  140.8851  160.8615 C.3     1  UNL1        0.0741
     18 C         137.3785  139.7133  160.4279 C.3     1  UNL1        0.0189
     19 C         138.5561  141.0631  162.3098 C.3     1  UNL1        0.1066
     20 H         139.2469  141.3597  159.1672 H       1  UNL1        0.1233
     21 C         142.1320  142.2210  170.6308 C.2     1  UNL1        0.0774
     22 O         142.9068  143.4267  171.0735 O.co2   1  UNL1       -0.5444
     23 O         141.7048  141.1932  171.6363 O.co2   1  UNL1       -0.5444
     24 C         142.7580  139.7019  166.1294 C.3     1  UNL1        0.0857
     25 C         142.7294  138.3266  165.5313 C.3     1  UNL1        0.0245
     26 C         143.9307  139.2038  165.3377 C.3     1  UNL1        0.0245
     27 C         142.2251  140.7823  162.8322 C.3     1  UNL1        0.2526
     28 O         141.4024  140.4276  164.0352 O.3     1  UNL1       -0.4686
@<TRIPOS>UNITY_ATOM_ATTR
22 1
charge -1
@<TRIPOS>BOND
     1    27    28    1
     2    28     1    1
     3     1     2   ar
     4     2    13    1
     5    13    14    1
     6    14    15    1
     7    15    16    1
     8    16    17    1
     9    17    18    1
    10    17    19    1
    11     2     3   ar
    12     3     4    1
    13     3     5   ar
    14     5     6   ar
    15     6     7   ar
    16     7     8    2
    17     7     9   ar
    18     9    21    1
    19    21    22   ar
    20    21    23   ar
    21     9    10   ar
    22    10    11   ar
    23    11    24    1
    24    24    25    1
    25    25    26    1
    26    11    12   ar
    27    12     1   ar
    28    19    13    1
    29    12     6   ar
    30    26    24    1
    31    16    20    1
@<TRIPOS>MOLECULE
*****
 28 31 0 0 0
SMALL
GASTEIGER

@<TRIPOS>ATOM
      1 C         140.9097  140.0545  164.0380 C.ar    1  UNL1        0.1698
      2 C         140.1129  139.1256  163.1707 C.ar    1  UNL1        0.1116
      3 C         138.9770  138.3410  163.7573 C.ar    1  UNL1        0.1565
      4 F         138.1803  137.4121  162.8899 F       1  UNL1       -0.2028
      5 C         138.6379  138.4852  165.2113 C.ar    1  UNL1        0.0357
      6 C         139.4347  139.4141  166.0787 C.ar    1  UNL1        0.0601
      7 C         139.0955  139.5584  167.5327 C.ar    1  UNL1        0.1997
      8 O         137.9597  138.7737  168.1194 O.2     1  UNL1       -0.2864
      9 C         139.8923  140.4872  168.4001 C.ar    1  UNL1        0.0701
     10 C         141.0282  141.2719  167.8135 C.ar    1  UNL1        0.0802
     11 N         141.3673  141.1276  166.3595 N.ar    1  UNL1       -0.3253
     12 C         140.5705  140.1987  165.4920 C.ar    1  UNL1        0.0987
     13 N         140.4520  138.9813  161.7166 N.pl3   1  UNL1       -0.3006
     14 C         141.7102  138.2752  161.3064 C.3     1  UNL1        0.1080
     15 C         142.0493  138.1309  159.8523 C.3     1  UNL1        0.0903
     16 N         141.1302  138.6928  158.8085 N.3     1  UNL1       -0.2957
     17 C         139.8719  139.3990  159.2188 C.3     1  UNL1        0.0741
     18 C         138.9528  139.9609  158.1750 C.3     1  UNL1        0.0189
     19 C         139.5329  139.5432  160.6728 C.3     1  UNL1        0.1066
     20 H         140.8497  137.9137  158.2129 H       1  UNL1        0.1233
     21 C         139.5532  140.6315  169.8542 C.2     1  UNL1        0.0774
     22 O         139.7105  139.4623  170.7806 O.co2   1  UNL1       -0.5444
     23 O         139.0568  141.9449  170.3818 O.co2   1  UNL1       -0.5444
     24 C         142.5032  141.9122  165.7728 C.3     1  UNL1        0.0857
     25 C         143.0470  143.1979  165.2239 C.3     1  UNL1        0.0245
     26 C         143.9266  141.9856  165.3057 C.3     1  UNL1        0.0245
     27 C         141.7878  141.8190  162.3454 C.3     1  UNL1        0.2526
     28 O         142.0455  140.8391  163.4514 O.3     1  UNL1       -0.4686
@<TRIPOS>UNITY_ATOM_ATTR
22 1
charge -1
@<TRIPOS>BOND
     1    27    28    1
     2    28     1    1
     3     1     2   ar
     4     2    13    1
     5    13    14    1
     6    14    15    1
     7    15    16    1
     8    16    17    1
     9    17    18    1
    10    17    19    1
    11     2     3   ar
    12     3     4    1
    13     3     5   ar
    14     5     6   ar
    15     6     7   ar
    16     7     8    2
    17     7     9   ar
    18     9    21    1
    19    21    22   ar
    20    21    23   ar
    21     9    10   ar
    22    10    11   ar
    23    11    24    1
    24    24    25    1
    25    25    26    1
    26    11    12   ar
    27    12     1   ar
    28    19    13    1
    29    12     6   ar
    30    26    24    1
    31    16    20    1
@<TRIPOS>MOLECULE
*****
 28 31 0 0 0
SMALL
GASTEIGER

@<TRIPOS>ATOM
      1 C         140.6949  141.4216  164.8251 C.ar    1  UNL1        0.1698
      2 C         139.6297  142.2593  164.1819 C.ar    1  UNL1        0.1116
      3 C         138.9547  143.3457  164.9656 C.ar    1  UNL1        0.1565
      4 F         137.8895  144.1834  164.3224 F       1  UNL1       -0.2028
      5 C         139.3449  143.5944  166.3924 C.ar    1  UNL1        0.0357
      6 C         140.4101  142.7567  167.0356 C.ar    1  UNL1        0.0601
      7 C         140.8004  143.0054  168.4624 C.ar    1  UNL1        0.1997
      8 O         140.1254  144.0918  169.2461 O.2     1  UNL1       -0.2864
      9 C         141.8655  142.1677  169.1056 C.ar    1  UNL1        0.0701
     10 C         142.5405  141.0813  168.3219 C.ar    1  UNL1        0.0802
     11 N         142.1503  140.8326  166.8951 N.ar    1  UNL1       -0.3253
     12 C         141.0851  141.6703  166.2519 C.ar    1  UNL1        0.0987
     13 N         139.2395  142.0106  162.7550 N.pl3   1  UNL1       -0.3006
     14 C         138.3894  140.8252  162.4057 C.3     1  UNL1        0.1080
     15 C         137.9991  140.5765  160.9788 C.3     1  UNL1        0.0903
     16 N         138.4590  141.5132  159.9013 N.3     1  UNL1       -0.2957
     17 C         139.3092  142.6987  160.2507 C.3     1  UNL1        0.0741
     18 C         139.7691  143.6355  159.1733 C.3     1  UNL1        0.0189
     19 C         139.6994  142.9473  161.6776 C.3     1  UNL1        0.1066
     20 H         137.6200  141.8758  159.4485 H       1  UNL1        0.1233
     21 C         142.2558  142.4164  170.5325 C.2     1  UNL1        0.0774
     22 O         143.1012  143.6050  170.8825 O.co2   1  UNL1       -0.5444
     23 O         141.8007  141.4765  171.6092 O.co2   1  UNL1       -0.5444
     24 C         142.8253  139.7462  166.1114 C.3     1  UNL1        0.0857
     25 C         142.8413  138.3411  165.5868 C.3     1  UNL1        0.0245
     26 C         143.9783  139.2697  165.2786 C.3     1  UNL1        0.0245
     27 C         142.1350  140.6732  162.7963 C.3     1  UNL1        0.2526
     28 O         141.3699  140.3352  164.0414 O.3     1  UNL1       -0.4686
@<TRIPOS>UNITY_ATOM_ATTR
22 1
charge -1
@<TRIPOS>BOND
     1    27    28    1
     2    28     1    1
     3     1     2   ar
     4     2    13    1
     5    13    14    1
     6    14    15    1
     7    15    16    1
     8    16    17    1
     9    17    18    1
    10    17    19    1
    11     2     3   ar
    12     3     4    1
    13     3     5   ar
    14     5     6   ar
    15     6     7   ar
    16     7     8    2
    17     7     9   ar
    18     9    21    1
    19    21    22   ar
    20    21    23   ar
    21     9    10   ar
    22    10    11   ar
    23    11    24    1
    24    24    25    1
    25    25    26    1
    26    11    12   ar
    27    12     1   ar
    28    19    13    1
    29    12     6   ar
    30    26    24    1
    31    16    20    1
@<TRIPOS>MOLECULE
*****
 28 31 0 0 0
SMALL
GASTEIGER

@<TRIPOS>ATOM
      1 C         141.3349  141.9242  164.0786 C.ar    1  UNL1        0.1698
      2 C         140.4353  143.0937  163.8088 C.ar    1  UNL1        0.1116
      3 C         139.7095  143.7584  164.9407 C.ar    1  UNL1        0.1565
      4 F         138.8098  144.9280  164.6709 F       1  UNL1       -0.2028
      5 C         139.8832  143.2536  166.3425 C.ar    1  UNL1        0.0357
      6 C         140.7829  142.0841  166.6123 C.ar    1  UNL1        0.0601
      7 C         140.9567  141.5792  168.0141 C.ar    1  UNL1        0.1997
      8 O         140.2309  142.2440  169.1460 O.2     1  UNL1       -0.2864
      9 C         141.8563  140.4097  168.2839 C.ar    1  UNL1        0.0701
     10 C         142.5821  139.7450  167.1519 C.ar    1  UNL1        0.0802
     11 N         142.4083  140.2498  165.7502 N.ar    1  UNL1       -0.3253
     12 C         141.5087  141.4194  165.4803 C.ar    1  UNL1        0.0987
     13 N         140.2615  143.5986  162.4070 N.pl3   1  UNL1       -0.3006
     14 C         140.8762  144.9044  161.9985 C.3     1  UNL1        0.1080
     15 C         140.7024  145.4093  160.5967 C.3     1  UNL1        0.0903
     16 N         139.9138  144.6082  159.6035 N.3     1  UNL1       -0.2957
     17 C         139.2991  143.3024  160.0120 C.3     1  UNL1        0.0741
     18 C         138.5105  142.5013  159.0188 C.3     1  UNL1        0.0189
     19 C         139.4729  142.7976  161.4137 C.3     1  UNL1        0.1066
     20 H         140.5398  144.4078  158.8235 H       1  UNL1        0.1233
     21 C         142.0301  139.9048  169.6857 C.2     1  UNL1        0.0774
     22 O         143.3635  140.0174  170.3634 O.co2   1  UNL1       -0.5444
     23 O         140.8706  139.2874  170.4097 O.co2   1  UNL1       -0.5444
     24 C         143.1342  139.5850  164.6182 C.3     1  UNL1        0.0857
     25 C         144.3912  139.3718  163.8281 C.3     1  UNL1        0.0245
     26 C         143.1343  138.6469  163.4478 C.3     1  UNL1        0.0245
     27 C         143.0353  142.0425  162.1178 C.3     1  UNL1        0.2526
     28 O         142.0607  141.2594  162.9466 O.3     1  UNL1       -0.4686
@<TRIPOS>UNITY_ATOM_ATTR
22 1
charge -1
@<TRIPOS>BOND
     1    27    28    1
     2    28     1    1
     3     1     2   ar
     4     2    13    1
     5    13    14    1
     6    14    15    1
     7    15    16    1
     8    16    17    1
     9    17    18    1
    10    17    19    1
    11     2     3   ar
    12     3     4    1
    13     3     5   ar
    14     5     6   ar
    15     6     7   ar
    16     7     8    2
    17     7     9   ar
    18     9    21    1
    19    21    22   ar
    20    21    23   ar
    21     9    10   ar
    22    10    11   ar
    23    11    24    1
    24    24    25    1
    25    25    26    1
    26    11    12   ar
    27    12     1   ar
    28    19    13    1
    29    12     6   ar
    30    26    24    1
    31    16    20    1
@<TRIPOS>MOLECULE
*****
 28 31 0 0 0
SMALL
GASTEIGER

@<TRIPOS>ATOM
      1 C         141.9190  141.2754  164.6254 C.ar    1  UNL1        0.1698
      2 C         143.0580  140.5246  164.0017 C.ar    1  UNL1        0.1116
      3 C         143.8612  139.5613  164.8245 C.ar    1  UNL1        0.1565
      4 F         145.0003  138.8105  164.2007 F       1  UNL1       -0.2028
      5 C         143.5255  139.3488  166.2708 C.ar    1  UNL1        0.0357
      6 C         142.3865  140.0996  166.8945 C.ar    1  UNL1        0.0601
      7 C         142.0507  139.8871  168.3410 C.ar    1  UNL1        0.1997
      8 O         142.8539  138.9238  169.1637 O.2     1  UNL1       -0.2864
      9 C         140.9117  140.6379  168.9646 C.ar    1  UNL1        0.0701
     10 C         140.1084  141.6012  168.1419 C.ar    1  UNL1        0.0802
     11 N         140.4442  141.8137  166.6955 N.ar    1  UNL1       -0.3253
     12 C         141.5832  141.0629  166.0718 C.ar    1  UNL1        0.0987
     13 N         143.3938  140.7371  162.5553 N.pl3   1  UNL1       -0.3006
     14 C         144.0802  141.9985  162.1222 C.3     1  UNL1        0.1080
     15 C         144.4160  142.2110  160.6757 C.3     1  UNL1        0.0903
     16 N         144.0653  141.1620  159.6624 N.3     1  UNL1       -0.2957
     17 C         143.3788  139.9006  160.0956 C.3     1  UNL1        0.0741
     18 C         143.0281  138.8516  159.0823 C.3     1  UNL1        0.0189
     19 C         143.0431  139.6881  161.5420 C.3     1  UNL1        0.1066
     20 H         144.9376  140.8832  159.2133 H       1  UNL1        0.1233
     21 C         140.5759  140.4254  170.4111 C.2     1  UNL1        0.0774
     22 O         139.3520  139.6453  170.7901 O.co2   1  UNL1       -0.5444
     23 O         141.4639  140.9929  171.4784 O.co2   1  UNL1       -0.5444
     24 C         139.6409  142.7769  165.8728 C.3     1  UNL1        0.0857
     25 C         139.4466  144.1506  165.3024 C.3     1  UNL1        0.0245
     26 C         138.4440  143.0717  165.0181 C.3     1  UNL1        0.0245
     27 C         140.3717  141.7537  162.5939 C.3     1  UNL1        0.2526
     28 O         141.1157  142.2387  163.8027 O.3     1  UNL1       -0.4686
@<TRIPOS>UNITY_ATOM_ATTR
22 1
charge -1
@<TRIPOS>BOND
     1    27    28    1
     2    28     1    1
     3     1     2   ar
     4     2    13    1
     5    13    14    1
     6    14    15    1
     7    15    16    1
     8    16    17    1
     9    17    18    1
    10    17    19    1
    11     2     3   ar
    12     3     4    1
    13     3     5   ar
    14     5     6   ar
    15     6     7   ar
    16     7     8    2
    17     7     9   ar
    18     9    21    1
    19    21    22   ar
    20    21    23   ar
    21     9    10   ar
    22    10    11   ar
    23    11    24    1
    24    24    25    1
    25    25    26    1
    26    11    12   ar
    27    12     1   ar
    28    19    13    1
    29    12     6   ar
    30    26    24    1
    31    16    20    1
