@<TRIPOS>MOLECULE
*****
 31 33 0 0 0
SMALL
GASTEIGER

@<TRIPOS>ATOM
      1 C         141.5264  144.5577  160.7677 C.3     1  UNL1        0.1056
      2 N         141.8797  143.7907  162.0074 N.3     1  UNL1       -0.2682
      3 C         141.6416  142.3108  162.0671 C.3     1  UNL1        0.0897
      4 C         141.9949  141.5437  163.3067 C.3     1  UNL1        0.0899
      5 N         142.5863  142.2564  164.4866 N.3     1  UNL1       -0.2665
      6 C         142.8244  143.7362  164.4270 C.3     1  UNL1        0.0899
      7 C         142.4711  144.5033  163.1873 C.3     1  UNL1        0.0897
      8 C         142.9396  141.4893  165.7263 C.3     1  UNL1        0.0992
      9 C         141.9155  141.2938  166.8047 C.ar    1  UNL1       -0.0052
     10 C         141.2292  139.9686  166.9559 C.ar    1  UNL1       -0.0020
     11 C         140.2051  139.7731  168.0343 C.ar    1  UNL1        0.0120
     12 C         139.8673  140.9027  168.9616 C.ar    1  UNL1        0.0682
     13 CL        138.8432  140.7072  170.0400 Cl      1  UNL1       -0.0814
     14 C         140.5536  142.2279  168.8104 C.ar    1  UNL1        0.0679
     15 CL        140.2159  143.3576  169.7377 Cl      1  UNL1       -0.0814
     16 C         141.5778  142.4234  167.7320 C.ar    1  UNL1        0.0093
     17 O         139.7460  145.8922  159.4263 O.3     1  UNL1       -0.3793
     18 C         140.2884  145.4041  160.7369 C.3     1  UNL1        0.1700
     19 H         138.9484  146.4214  159.5834 H       1  UNL1        0.2106
     20 C         139.5926  145.7624  162.0166 C.3     1  UNL1        0.2358
     21 O         138.3073  145.0836  162.3870 O.3     1  UNL1       -0.4728
     22 C         138.3275  143.6884  162.9375 C.ar    1  UNL1        0.1387
     23 C         138.7322  143.4500  164.3620 C.ar    1  UNL1        0.0368
     24 C         138.7523  142.0548  164.9125 C.ar    1  UNL1        0.0070
     25 C         138.3677  140.8980  164.0384 C.ar    1  UNL1        0.0716
     26 C         137.9630  141.1364  162.6139 C.ar    1  UNL1        0.0070
     27 C         137.9429  142.5316  162.0634 C.ar    1  UNL1        0.0368
     28 C         138.3879  139.5028  164.5889 C.3     1  UNL1        0.4186
     29 F         138.4080  138.1076  165.1394 F       1  UNL1       -0.1659
     30 F         137.7822  139.9988  165.8684 F       1  UNL1       -0.1659
     31 F         138.9935  139.0067  163.3094 F       1  UNL1       -0.1659
@<TRIPOS>BOND
     1    18    17    1
     2    18    20    1
     3    20    21    1
     4    21    22    1
     5    22    23   ar
     6    23    24   ar
     7    24    25   ar
     8    25    28    1
     9    28    29    1
    10    28    30    1
    11    28    31    1
    12    25    26   ar
    13    26    27   ar
    14    18     1    1
    15     1     2    1
    16     2     3    1
    17     3     4    1
    18     4     5    1
    19     5     8    1
    20     8     9    1
    21     9    10   ar
    22    10    11   ar
    23    11    12   ar
    24    12    13    1
    25    12    14   ar
    26    14    15    1
    27    14    16   ar
    28     5     6    1
    29     6     7    1
    30    27    22   ar
    31     7     2    1
    32    16     9   ar
    33    17    19    1
@<TRIPOS>MOLECULE
*****
 31 33 0 0 0
SMALL
GASTEIGER

@<TRIPOS>ATOM
      1 C         143.4051  140.4732  161.4743 C.3     1  UNL1        0.1056
      2 N         143.2482  140.2015  162.9411 N.3     1  UNL1       -0.2682
      3 C         142.0920  140.7905  163.6936 C.3     1  UNL1        0.0897
      4 C         141.9351  140.5188  165.1603 C.3     1  UNL1        0.0899
      5 N         142.9344  139.6580  165.8747 N.3     1  UNL1       -0.2665
      6 C         144.0906  139.0689  165.1224 C.3     1  UNL1        0.0899
      7 C         144.2475  139.3406  163.6555 C.3     1  UNL1        0.0897
      8 C         142.7774  139.3862  167.3415 C.3     1  UNL1        0.0992
      9 C         141.9896  140.3315  168.1994 C.ar    1  UNL1       -0.0052
     10 C         142.5426  141.6874  168.5247 C.ar    1  UNL1       -0.0020
     11 C         141.7549  142.6326  169.3825 C.ar    1  UNL1        0.0120
     12 C         140.4140  142.2220  169.9150 C.ar    1  UNL1        0.0682
     13 CL        139.6262  143.1673  170.7728 Cl      1  UNL1       -0.0814
     14 C         139.8609  140.8662  169.5897 C.ar    1  UNL1        0.0679
     15 CL        138.5201  140.4556  170.1222 Cl      1  UNL1       -0.0814
     16 C         140.6488  139.9209  168.7319 C.ar    1  UNL1        0.0093
     17 O         141.9552  140.4017  159.3197 O.3     1  UNL1       -0.3793
     18 C         142.5978  139.6963  160.4771 C.3     1  UNL1        0.1700
     19 H         141.4744  139.7584  158.7756 H       1  UNL1        0.2106
     20 C         142.4329  138.2140  160.6372 C.3     1  UNL1        0.2358
     21 O         141.0713  137.6323  160.8773 O.3     1  UNL1       -0.4728
     22 C         140.3774  137.8632  162.1870 C.ar    1  UNL1        0.1387
     23 C         140.8546  137.1597  163.4229 C.ar    1  UNL1        0.0368
     24 C         140.1607  137.3906  164.7325 C.ar    1  UNL1        0.0070
     25 C         138.9896  138.3250  164.8063 C.ar    1  UNL1        0.0716
     26 C         138.5124  139.0285  163.5704 C.ar    1  UNL1        0.0070
     27 C         139.2063  138.7976  162.2608 C.ar    1  UNL1        0.0368
     28 C         138.2957  138.5558  166.1160 C.3     1  UNL1        0.4186
     29 F         137.6018  138.7866  167.4256 F       1  UNL1       -0.1659
     30 F         138.5207  140.0321  165.9750 F       1  UNL1       -0.1659
     31 F         138.0706  137.0796  166.2569 F       1  UNL1       -0.1659
@<TRIPOS>BOND
     1    18    17    1
     2    18    20    1
     3    20    21    1
     4    21    22    1
     5    22    23   ar
     6    23    24   ar
     7    24    25   ar
     8    25    28    1
     9    28    29    1
    10    28    30    1
    11    28    31    1
    12    25    26   ar
    13    26    27   ar
    14    18     1    1
    15     1     2    1
    16     2     3    1
    17     3     4    1
    18     4     5    1
    19     5     8    1
    20     8     9    1
    21     9    10   ar
    22    10    11   ar
    23    11    12   ar
    24    12    13    1
    25    12    14   ar
    26    14    15    1
    27    14    16   ar
    28     5     6    1
    29     6     7    1
    30    27    22   ar
    31     7     2    1
    32    16     9   ar
    33    17    19    1
@<TRIPOS>MOLECULE
*****
 31 33 0 0 0
SMALL
GASTEIGER

@<TRIPOS>ATOM
      1 C         140.6133  138.2581  161.5876 C.3     1  UNL1        0.1056
      2 N         141.1978  138.6674  162.9069 N.3     1  UNL1       -0.2682
      3 C         141.5012  137.6300  163.9470 C.3     1  UNL1        0.0897
      4 C         142.0858  138.0393  165.2664 C.3     1  UNL1        0.0899
      5 N         142.3670  139.4860  165.5457 N.3     1  UNL1       -0.2665
      6 C         142.0637  140.5234  164.5056 C.3     1  UNL1        0.0899
      7 C         141.4791  140.1141  163.1862 C.3     1  UNL1        0.0897
      8 C         142.9516  139.8953  166.8650 C.3     1  UNL1        0.0992
      9 C         142.1171  140.6582  167.8508 C.ar    1  UNL1       -0.0052
     10 C         142.5902  141.9854  168.3653 C.ar    1  UNL1       -0.0020
     11 C         141.7558  142.7484  169.3510 C.ar    1  UNL1        0.0120
     12 C         140.4483  142.1841  169.8223 C.ar    1  UNL1        0.0682
     13 CL        139.6139  142.9470  170.8080 Cl      1  UNL1       -0.0814
     14 C         139.9752  140.8569  169.3078 C.ar    1  UNL1        0.0679
     15 CL        138.6678  140.2926  169.7790 Cl      1  UNL1       -0.0814
     16 C         140.8097  140.0939  168.3220 C.ar    1  UNL1        0.0093
     17 O         138.2080  137.4038  162.0722 O.3     1  UNL1       -0.3793
     18 C         139.1329  138.3480  161.3630 C.3     1  UNL1        0.1700
     19 H         137.2920  137.5960  161.8173 H       1  UNL1        0.2106
     20 C         138.5774  139.3822  160.4291 C.3     1  UNL1        0.2358
     21 O         137.4517  140.2677  160.8746 O.3     1  UNL1       -0.4728
     22 C         137.6929  141.3214  161.9147 C.ar    1  UNL1        0.1387
     23 C         137.5922  140.9749  163.3707 C.ar    1  UNL1        0.0368
     24 C         137.8333  142.0285  164.4107 C.ar    1  UNL1        0.0070
     25 C         138.1751  143.4286  163.9948 C.ar    1  UNL1        0.0716
     26 C         138.2758  143.7750  162.5389 C.ar    1  UNL1        0.0070
     27 C         138.0346  142.7214  161.4989 C.ar    1  UNL1        0.0368
     28 C         138.4162  144.4822  165.0350 C.3     1  UNL1        0.4186
     29 F         138.6573  145.5357  166.0751 F       1  UNL1       -0.1659
     30 F         139.8809  144.4660  164.7119 F       1  UNL1       -0.1659
     31 F         136.9516  144.4984  165.3580 F       1  UNL1       -0.1659
@<TRIPOS>BOND
     1    18    17    1
     2    18    20    1
     3    20    21    1
     4    21    22    1
     5    22    23   ar
     6    23    24   ar
     7    24    25   ar
     8    25    28    1
     9    28    29    1
    10    28    30    1
    11    28    31    1
    12    25    26   ar
    13    26    27   ar
    14    18     1    1
    15     1     2    1
    16     2     3    1
    17     3     4    1
    18     4     5    1
    19     5     8    1
    20     8     9    1
    21     9    10   ar
    22    10    11   ar
    23    11    12   ar
    24    12    13    1
    25    12    14   ar
    26    14    15    1
    27    14    16   ar
    28     5     6    1
    29     6     7    1
    30    27    22   ar
    31     7     2    1
    32    16     9   ar
    33    17    19    1
@<TRIPOS>MOLECULE
*****
 31 33 0 0 0
SMALL
GASTEIGER

@<TRIPOS>ATOM
      1 C         142.1372  140.5115  160.5364 C.3     1  UNL1        0.1056
      2 N         142.3353  141.0045  161.9391 N.3     1  UNL1       -0.2682
      3 C         141.1697  141.5376  162.7184 C.3     1  UNL1        0.0897
      4 C         141.3677  142.0306  164.1211 C.3     1  UNL1        0.0899
      5 N         142.7314  141.9905  164.7447 N.3     1  UNL1       -0.2665
      6 C         143.8970  141.4573  163.9655 C.3     1  UNL1        0.0899
      7 C         143.6989  140.9643  162.5627 C.3     1  UNL1        0.0897
      8 C         142.9295  142.4835  166.1474 C.3     1  UNL1        0.0992
      9 C         142.1876  141.8389  167.2807 C.ar    1  UNL1       -0.0052
     10 C         140.8790  142.4094  167.7412 C.ar    1  UNL1       -0.0020
     11 C         140.1372  141.7649  168.8744 C.ar    1  UNL1        0.0120
     12 C         140.7040  140.5499  169.5473 C.ar    1  UNL1        0.0682
     13 CL        139.9622  139.9054  170.6805 Cl      1  UNL1       -0.0814
     14 C         142.0126  139.9795  169.0868 C.ar    1  UNL1        0.0679
     15 CL        142.5795  138.7646  169.7596 Cl      1  UNL1       -0.0814
     16 C         142.7545  140.6240  167.9535 C.ar    1  UNL1        0.0093
     17 O         143.8624  139.2531  159.0565 O.3     1  UNL1       -0.3793
     18 C         142.7794  139.2301  160.0941 C.3     1  UNL1        0.1700
     19 H         144.1668  138.3479  158.8867 H       1  UNL1        0.2106
     20 C         142.3386  137.9257  160.6894 C.3     1  UNL1        0.2358
     21 O         142.6054  137.6333  162.1362 O.3     1  UNL1       -0.4728
     22 C         141.5275  137.8507  163.1565 C.ar    1  UNL1        0.1387
     23 C         140.0957  137.5733  162.8056 C.ar    1  UNL1        0.0368
     24 C         139.0179  137.7907  163.8258 C.ar    1  UNL1        0.0070
     25 C         139.3718  138.2854  165.1970 C.ar    1  UNL1        0.0716
     26 C         140.8035  138.5628  165.5478 C.ar    1  UNL1        0.0070
     27 C         141.8814  138.3454  164.5276 C.ar    1  UNL1        0.0368
     28 C         138.2938  138.5028  166.2172 C.3     1  UNL1        0.4186
     29 F         137.2159  138.7201  167.2374 F       1  UNL1       -0.1659
     30 F         138.6237  139.9656  166.2541 F       1  UNL1       -0.1659
     31 F         137.9640  137.0400  166.1803 F       1  UNL1       -0.1659
@<TRIPOS>BOND
     1    18    17    1
     2    18    20    1
     3    20    21    1
     4    21    22    1
     5    22    23   ar
     6    23    24   ar
     7    24    25   ar
     8    25    28    1
     9    28    29    1
    10    28    30    1
    11    28    31    1
    12    25    26   ar
    13    26    27   ar
    14    18     1    1
    15     1     2    1
    16     2     3    1
    17     3     4    1
    18     4     5    1
    19     5     8    1
    20     8     9    1
    21     9    10   ar
    22    10    11   ar
    23    11    12   ar
    24    12    13    1
    25    12    14   ar
    26    14    15    1
    27    14    16   ar
    28     5     6    1
    29     6     7    1
    30    27    22   ar
    31     7     2    1
    32    16     9   ar
    33    17    19    1
@<TRIPOS>MOLECULE
*****
 31 33 0 0 0
SMALL
GASTEIGER

@<TRIPOS>ATOM
      1 C         144.3206  140.2215  161.6860 C.3     1  UNL1        0.1056
      2 N         143.5104  140.8957  162.7532 N.3     1  UNL1       -0.2682
      3 C         144.1873  141.4466  163.9732 C.3     1  UNL1        0.0897
      4 C         143.3771  142.1207  165.0405 C.3     1  UNL1        0.0899
      5 N         141.8900  142.2440  164.8878 N.3     1  UNL1       -0.2665
      6 C         141.2131  141.6931  163.6679 C.3     1  UNL1        0.0899
      7 C         142.0233  141.0189  162.6006 C.3     1  UNL1        0.0897
      8 C         141.0798  142.9181  165.9551 C.3     1  UNL1        0.0992
      9 C         140.7505  142.1855  167.2220 C.ar    1  UNL1       -0.0052
     10 C         140.7738  140.6859  167.2488 C.ar    1  UNL1       -0.0020
     11 C         140.4445  139.9533  168.5156 C.ar    1  UNL1        0.0120
     12 C         140.0919  140.7203  169.7556 C.ar    1  UNL1        0.0682
     13 CL        139.7626  139.9877  171.0224 Cl      1  UNL1       -0.0814
     14 C         140.0687  142.2199  169.7288 C.ar    1  UNL1        0.0679
     15 CL        139.7162  142.9868  170.9687 Cl      1  UNL1       -0.0814
     16 C         140.3980  142.9525  168.4619 C.ar    1  UNL1        0.0093
     17 O         143.2319  139.6763  159.3909 O.3     1  UNL1       -0.3793
     18 C         143.6693  139.2397  160.7577 C.3     1  UNL1        0.1700
     19 H         142.8331  138.9255  158.9239 H       1  UNL1        0.2106
     20 C         143.4554  137.8212  161.1962 C.3     1  UNL1        0.2358
     21 O         142.0726  137.2400  161.2069 O.3     1  UNL1       -0.4728
     22 C         141.1295  137.5687  162.3261 C.ar    1  UNL1        0.1387
     23 C         141.6132  137.5455  163.7457 C.ar    1  UNL1        0.0368
     24 C         140.6701  137.8742  164.8649 C.ar    1  UNL1        0.0070
     25 C         139.2433  138.2262  164.5643 C.ar    1  UNL1        0.0716
     26 C         138.7596  138.2494  163.1447 C.ar    1  UNL1        0.0070
     27 C         139.7027  137.9207  162.0256 C.ar    1  UNL1        0.0368
     28 C         138.3002  138.5549  165.6835 C.3     1  UNL1        0.4186
     29 F         137.3571  138.8836  166.8027 F       1  UNL1       -0.1659
     30 F         138.2950  137.1146  166.1023 F       1  UNL1       -0.1659
     31 F         138.3054  139.9952  165.2648 F       1  UNL1       -0.1659
@<TRIPOS>BOND
     1    18    17    1
     2    18    20    1
     3    20    21    1
     4    21    22    1
     5    22    23   ar
     6    23    24   ar
     7    24    25   ar
     8    25    28    1
     9    28    29    1
    10    28    30    1
    11    28    31    1
    12    25    26   ar
    13    26    27   ar
    14    18     1    1
    15     1     2    1
    16     2     3    1
    17     3     4    1
    18     4     5    1
    19     5     8    1
    20     8     9    1
    21     9    10   ar
    22    10    11   ar
    23    11    12   ar
    24    12    13    1
    25    12    14   ar
    26    14    15    1
    27    14    16   ar
    28     5     6    1
    29     6     7    1
    30    27    22   ar
    31     7     2    1
    32    16     9   ar
    33    17    19    1
@<TRIPOS>MOLECULE
*****
 31 33 0 0 0
SMALL
GASTEIGER

@<TRIPOS>ATOM
      1 C         140.9366  144.1053  161.1325 C.3     1  UNL1        0.1056
      2 N         141.4747  143.3723  162.3254 N.3     1  UNL1       -0.2682
      3 C         142.1205  144.1336  163.4450 C.3     1  UNL1        0.0897
      4 C         142.6585  143.4006  164.6380 C.3     1  UNL1        0.0899
      5 N         142.5508  141.9063  164.7114 N.3     1  UNL1       -0.2665
      6 C         141.9049  141.1450  163.5919 C.3     1  UNL1        0.0899
      7 C         141.3669  141.8780  162.3989 C.3     1  UNL1        0.0897
      8 C         143.0888  141.1733  165.9044 C.3     1  UNL1        0.0992
      9 C         142.4723  141.3847  167.2554 C.ar    1  UNL1       -0.0052
     10 C         143.1598  142.2545  168.2657 C.ar    1  UNL1       -0.0020
     11 C         142.5434  142.4660  169.6167 C.ar    1  UNL1        0.0120
     12 C         141.2393  141.8077  169.9575 C.ar    1  UNL1        0.0682
     13 CL        140.6228  142.0191  171.3084 Cl      1  UNL1       -0.0814
     14 C         140.5517  140.9379  168.9471 C.ar    1  UNL1        0.0679
     15 CL        139.2477  140.2796  169.2878 Cl      1  UNL1       -0.0814
     16 C         141.1682  140.7264  167.5961 C.ar    1  UNL1        0.0093
     17 O         139.6857  146.2180  160.2830 O.3     1  UNL1       -0.3793
     18 C         139.8624  145.1373  161.3081 C.3     1  UNL1        0.1700
     19 H         138.9535  146.7971  160.5465 H       1  UNL1        0.2106
     20 C         138.9648  145.0887  162.5090 C.3     1  UNL1        0.2358
     21 O         137.8101  144.1320  162.5441 O.3     1  UNL1       -0.4728
     22 C         137.9714  142.7849  163.1840 C.ar    1  UNL1        0.1387
     23 C         137.6600  141.5420  162.4042 C.ar    1  UNL1        0.0368
     24 C         137.8213  140.1950  163.0442 C.ar    1  UNL1        0.0070
     25 C         138.2940  140.0910  164.4639 C.ar    1  UNL1        0.0716
     26 C         138.6054  141.3339  165.2438 C.ar    1  UNL1        0.0070
     27 C         138.4441  142.6808  164.6038 C.ar    1  UNL1        0.0368
     28 C         138.4553  138.7439  165.1039 C.3     1  UNL1        0.4186
     29 F         138.6165  137.3969  165.7439 F       1  UNL1       -0.1659
     30 F         139.0188  138.2030  163.8234 F       1  UNL1       -0.1659
     31 F         137.8917  139.2848  166.3844 F       1  UNL1       -0.1659
@<TRIPOS>BOND
     1    18    17    1
     2    18    20    1
     3    20    21    1
     4    21    22    1
     5    22    23   ar
     6    23    24   ar
     7    24    25   ar
     8    25    28    1
     9    28    29    1
    10    28    30    1
    11    28    31    1
    12    25    26   ar
    13    26    27   ar
    14    18     1    1
    15     1     2    1
    16     2     3    1
    17     3     4    1
    18     4     5    1
    19     5     8    1
    20     8     9    1
    21     9    10   ar
    22    10    11   ar
    23    11    12   ar
    24    12    13    1
    25    12    14   ar
    26    14    15    1
    27    14    16   ar
    28     5     6    1
    29     6     7    1
    30    27    22   ar
    31     7     2    1
    32    16     9   ar
    33    17    19    1
@<TRIPOS>MOLECULE
*****
 31 33 0 0 0
SMALL
GASTEIGER

@<TRIPOS>ATOM
      1 C         140.3606  138.1704  161.6808 C.3     1  UNL1        0.1056
      2 N         140.0921  138.5574  163.1049 N.3     1  UNL1       -0.2682
      3 C         140.7589  139.7660  163.6921 C.3     1  UNL1        0.0897
      4 C         140.4904  140.1529  165.1163 C.3     1  UNL1        0.0899
      5 N         139.5553  139.3314  165.9532 N.3     1  UNL1       -0.2665
      6 C         138.8885  138.1228  165.3660 C.3     1  UNL1        0.0899
      7 C         139.1570  137.7358  163.9418 C.3     1  UNL1        0.0897
      8 C         139.2868  139.7183  167.3773 C.3     1  UNL1        0.0992
      9 C         140.3004  140.5181  168.1410 C.ar    1  UNL1       -0.0052
     10 C         141.6593  139.9438  168.4120 C.ar    1  UNL1       -0.0020
     11 C         142.6728  140.7435  169.1757 C.ar    1  UNL1        0.0120
     12 C         142.3274  142.1176  169.6684 C.ar    1  UNL1        0.0682
     13 CL        143.3409  142.9173  170.4321 Cl      1  UNL1       -0.0814
     14 C         140.9684  142.6919  169.3974 C.ar    1  UNL1        0.0679
     15 CL        140.6230  144.0659  169.8901 Cl      1  UNL1       -0.0814
     16 C         139.9549  141.8921  168.6337 C.ar    1  UNL1        0.0093
     17 O         140.5066  139.2832  159.3376 O.3     1  UNL1       -0.3793
     18 C         139.7143  138.9324  160.5620 C.3     1  UNL1        0.1700
     19 H         139.9435  139.7718  158.7170 H       1  UNL1        0.2106
     20 C         138.2756  139.3438  160.6676 C.3     1  UNL1        0.2358
     21 O         137.8953  140.7870  160.5182 O.3     1  UNL1       -0.4728
     22 C         138.0418  141.7253  161.6793 C.ar    1  UNL1        0.1387
     23 C         138.7811  143.0193  161.5093 C.ar    1  UNL1        0.0368
     24 C         138.9275  143.9576  162.6703 C.ar    1  UNL1        0.0070
     25 C         138.3346  143.6019  164.0015 C.ar    1  UNL1        0.0716
     26 C         137.5953  142.3079  164.1715 C.ar    1  UNL1        0.0070
     27 C         137.4488  141.3696  163.0104 C.ar    1  UNL1        0.0368
     28 C         138.4811  144.5402  165.1626 C.3     1  UNL1        0.4186
     29 F         138.6276  145.4785  166.3236 F       1  UNL1       -0.1659
     30 F         136.9952  144.5195  165.3669 F       1  UNL1       -0.1659
     31 F         139.9669  144.5610  164.9583 F       1  UNL1       -0.1659
@<TRIPOS>BOND
     1    18    17    1
     2    18    20    1
     3    20    21    1
     4    21    22    1
     5    22    23   ar
     6    23    24   ar
     7    24    25   ar
     8    25    28    1
     9    28    29    1
    10    28    30    1
    11    28    31    1
    12    25    26   ar
    13    26    27   ar
    14    18     1    1
    15     1     2    1
    16     2     3    1
    17     3     4    1
    18     4     5    1
    19     5     8    1
    20     8     9    1
    21     9    10   ar
    22    10    11   ar
    23    11    12   ar
    24    12    13    1
    25    12    14   ar
    26    14    15    1
    27    14    16   ar
    28     5     6    1
    29     6     7    1
    30    27    22   ar
    31     7     2    1
    32    16     9   ar
    33    17    19    1
@<TRIPOS>MOLECULE
*****
 31 33 0 0 0
SMALL
GASTEIGER

@<TRIPOS>ATOM
      1 C         138.7265  144.7888  162.3576 C.3     1  UNL1        0.1056
      2 N         138.9648  143.5101  163.1046 N.3     1  UNL1       -0.2682
      3 C         139.9175  143.4845  164.2630 C.3     1  UNL1        0.0897
      4 C         140.1558  142.2058  165.0099 C.3     1  UNL1        0.0899
      5 N         139.4414  140.9526  164.5986 N.3     1  UNL1       -0.2665
      6 C         138.4887  140.9781  163.4403 C.3     1  UNL1        0.0899
      7 C         138.2504  142.2569  162.6933 C.3     1  UNL1        0.0897
      8 C         139.6797  139.6739  165.3456 C.3     1  UNL1        0.0992
      9 C         140.4694  139.6862  166.6209 C.ar    1  UNL1       -0.0052
     10 C         141.9416  139.4002  166.5942 C.ar    1  UNL1       -0.0020
     11 C         142.7313  139.4126  167.8694 C.ar    1  UNL1        0.0120
     12 C         142.0488  139.7109  169.1714 C.ar    1  UNL1        0.0682
     13 CL        142.8384  139.7232  170.4466 Cl      1  UNL1       -0.0814
     14 C         140.5765  139.9968  169.1982 C.ar    1  UNL1        0.0679
     15 CL        139.8939  140.2951  170.5001 Cl      1  UNL1       -0.0814
     16 C         139.7868  139.9845  167.9228 C.ar    1  UNL1        0.0093
     17 O         140.2647  146.8824  162.3858 O.3     1  UNL1       -0.3793
     18 C         139.8862  145.5563  161.7956 C.3     1  UNL1        0.1700
     19 H         141.0295  147.2418  161.9096 H       1  UNL1        0.2106
     20 C         140.6674  144.9978  160.6433 C.3     1  UNL1        0.2358
     21 O         142.1559  144.8461  160.7497 O.3     1  UNL1       -0.4728
     22 C         142.7398  143.7294  161.5635 C.ar    1  UNL1        0.1387
     23 C         142.0813  142.3818  161.5691 C.ar    1  UNL1        0.0368
     24 C         142.6651  141.2652  162.3829 C.ar    1  UNL1        0.0070
     25 C         143.9075  141.4962  163.1910 C.ar    1  UNL1        0.0716
     26 C         144.5660  142.8439  163.1853 C.ar    1  UNL1        0.0070
     27 C         143.9822  143.9605  162.3716 C.ar    1  UNL1        0.0368
     28 C         144.4914  140.3796  164.0048 C.3     1  UNL1        0.4186
     29 F         145.0752  139.2629  164.8185 F       1  UNL1       -0.1659
     30 F         144.4086  141.2331  165.2355 F       1  UNL1       -0.1659
     31 F         144.5741  139.5260  162.7741 F       1  UNL1       -0.1659
@<TRIPOS>BOND
     1    18    17    1
     2    18    20    1
     3    20    21    1
     4    21    22    1
     5    22    23   ar
     6    23    24   ar
     7    24    25   ar
     8    25    28    1
     9    28    29    1
    10    28    30    1
    11    28    31    1
    12    25    26   ar
    13    26    27   ar
    14    18     1    1
    15     1     2    1
    16     2     3    1
    17     3     4    1
    18     4     5    1
    19     5     8    1
    20     8     9    1
    21     9    10   ar
    22    10    11   ar
    23    11    12   ar
    24    12    13    1
    25    12    14   ar
    26    14    15    1
    27    14    16   ar
    28     5     6    1
    29     6     7    1
    30    27    22   ar
    31     7     2    1
    32    16     9   ar
    33    17    19    1
@<TRIPOS>MOLECULE
*****
 31 33 0 0 0
SMALL
GASTEIGER

@<TRIPOS>ATOM
      1 C         138.7905  141.8922  159.4079 C.3     1  UNL1        0.1056
      2 N         139.7861  142.0834  160.5134 N.3     1  UNL1       -0.2682
      3 C         139.5511  143.1302  161.5618 C.3     1  UNL1        0.0897
      4 C         140.5467  143.3214  162.6673 C.3     1  UNL1        0.0899
      5 N         141.7773  142.4657  162.7245 N.3     1  UNL1       -0.2665
      6 C         142.0124  141.4189  161.6763 C.3     1  UNL1        0.0899
      7 C         141.0168  141.2277  160.5707 C.3     1  UNL1        0.0897
      8 C         142.7729  142.6569  163.8300 C.3     1  UNL1        0.0992
      9 C         142.7023  141.8003  165.0594 C.ar    1  UNL1       -0.0052
     10 C         142.3614  140.3444  164.9406 C.ar    1  UNL1       -0.0020
     11 C         142.2907  139.4878  166.1699 C.ar    1  UNL1        0.0120
     12 C         142.5609  140.0872  167.5182 C.ar    1  UNL1        0.0682
     13 CL        142.4902  139.2306  168.7475 Cl      1  UNL1       -0.0814
     14 C         142.9017  141.5431  167.6371 C.ar    1  UNL1        0.0679
     15 CL        143.1719  142.1425  168.9853 Cl      1  UNL1       -0.0814
     16 C         142.9724  142.3997  166.4077 C.ar    1  UNL1        0.0093
     17 O         138.2874  139.8820  157.8408 O.3     1  UNL1       -0.3793
     18 C         138.1710  140.5451  159.1812 C.3     1  UNL1        0.1700
     19 H         137.8354  139.0241  157.8641 H       1  UNL1        0.2106
     20 C         137.4350  139.8610  160.2950 C.3     1  UNL1        0.2358
     21 O         138.1244  138.8123  161.1165 O.3     1  UNL1       -0.4728
     22 C         138.2817  139.0020  162.5961 C.ar    1  UNL1        0.1387
     23 C         137.9185  140.3135  163.2269 C.ar    1  UNL1        0.0368
     24 C         138.0759  140.5032  164.7065 C.ar    1  UNL1        0.0070
     25 C         138.5963  139.3813  165.5553 C.ar    1  UNL1        0.0716
     26 C         138.9594  138.0697  164.9245 C.ar    1  UNL1        0.0070
     27 C         138.8021  137.8801  163.4450 C.ar    1  UNL1        0.0368
     28 C         138.7536  139.5710  167.0350 C.3     1  UNL1        0.4186
     29 F         138.9109  139.7606  168.5146 F       1  UNL1       -0.1659
     30 F         139.4380  140.8838  166.7940 F       1  UNL1       -0.1659
     31 F         138.0692  138.2582  167.2760 F       1  UNL1       -0.1659
@<TRIPOS>BOND
     1    18    17    1
     2    18    20    1
     3    20    21    1
     4    21    22    1
     5    22    23   ar
     6    23    24   ar
     7    24    25   ar
     8    25    28    1
     9    28    29    1
    10    28    30    1
    11    28    31    1
    12    25    26   ar
    13    26    27   ar
    14    18     1    1
    15     1     2    1
    16     2     3    1
    17     3     4    1
    18     4     5    1
    19     5     8    1
    20     8     9    1
    21     9    10   ar
    22    10    11   ar
    23    11    12   ar
    24    12    13    1
    25    12    14   ar
    26    14    15    1
    27    14    16   ar
    28     5     6    1
    29     6     7    1
    30    27    22   ar
    31     7     2    1
    32    16     9   ar
    33    17    19    1
