@<TRIPOS>MOLECULE
*****
 30 33 0 0 0
SMALL
GASTEIGER

@<TRIPOS>ATOM
      1 C         141.9362  141.4551  164.7436 C.ar    1  UNL1        0.1679
      2 C         141.9710  142.9167  165.0788 C.ar    1  UNL1        0.0702
      3 C         141.8445  143.9393  163.9888 C.ar    1  UNL1        0.1620
      4 F         141.8794  145.4010  164.3239 F       1  UNL1       -0.2026
      5 C         141.6832  143.5003  162.5635 C.ar    1  UNL1        0.1549
      6 C         141.6484  142.0387  162.2284 C.ar    1  UNL1        0.0553
      7 C         141.7749  141.0161  163.3184 C.ar    1  UNL1        0.1753
      8 F         141.7400  139.5543  162.9832 F       1  UNL1       -0.2009
      9 S         141.5567  144.5230  161.4735 S.O2    1  UNL1        0.0773
     10 O         143.0175  144.3761  161.1662 O.2     1  UNL1       -0.1498
     11 O         140.0959  144.6699  161.7808 O.2     1  UNL1       -0.1498
     12 N         141.4302  145.5456  160.3835 N.pl3   1  UNL1       -0.1925
     13 H         141.2910  146.4932  160.6113 H       1  UNL1        0.1758
     14 C         141.5159  145.1245  158.9463 C.ar    1  UNL1        0.1977
     15 N         142.3022  145.8138  157.8709 N.ar    1  UNL1       -0.1997
     16 C         142.1026  145.0555  156.5923 C.ar    1  UNL1        0.2082
     17 N         141.1928  143.8974  156.8774 N.ar    1  UNL1       -0.1840
     18 S         140.8302  143.9401  158.3324 S.2     1  UNL1        0.0508
     19 O         142.0627  140.4324  165.8337 O.3     1  UNL1       -0.4764
     20 C         139.5958  139.6002  166.4391 C.3     1  UNL1        0.0799
     21 C         138.7656  139.5629  167.6879 C.3     1  UNL1        0.0096
     22 C         139.5815  140.1440  168.8045 C.3     1  UNL1        0.0042
     23 C         140.9159  140.5405  168.2457 C.3     1  UNL1        0.0439
     24 C         140.9247  140.2044  166.7839 C.3     1  UNL1        0.1714
     25 C         138.0844  141.3775  164.1573 C.3     1  UNL1        0.1533
     26 N         138.4768  139.9348  164.0348 N.ar    1  UNL1       -0.2527
     27 N         138.2434  139.0559  162.8419 N.ar    1  UNL1       -0.1679
     28 C         138.7938  137.6957  163.1535 C.ar    1  UNL1        0.1213
     29 C         139.3674  137.7341  164.5390 C.ar    1  UNL1        0.0369
     30 C         139.1715  139.1180  165.0836 C.ar    1  UNL1        0.0603
@<TRIPOS>BOND
     1    25    26    1
     2    26    27   ar
     3    27    28   ar
     4    28    29   ar
     5    29    30   ar
     6    20    30    1
     7    20    21    1
     8    21    22    1
     9    22    23    1
    10    23    24    1
    11    24    19    1
    12    19     1    1
    13     1     2   ar
    14     2     3   ar
    15     3     4    1
    16     3     5   ar
    17     5     9    1
    18     9    10    2
    19     9    11    2
    20     9    12    1
    21    12    14    1
    22    14    15   ar
    23    15    16   ar
    24    16    17   ar
    25    17    18   ar
    26     5     6   ar
    27     6     7   ar
    28     7     8    1
    29    30    26   ar
    30    24    20    1
    31     7     1   ar
    32    18    14   ar
    33    12    13    1
@<TRIPOS>MOLECULE
*****
 30 33 0 0 0
SMALL
GASTEIGER

@<TRIPOS>ATOM
      1 C         140.2260  141.6578  164.9670 C.ar    1  UNL1        0.1679
      2 C         138.9341  142.3862  164.7428 C.ar    1  UNL1        0.0702
      3 C         138.8162  143.3766  163.6225 C.ar    1  UNL1        0.1620
      4 F         137.5242  144.1050  163.3982 F       1  UNL1       -0.2026
      5 C         139.9902  143.6386  162.7264 C.ar    1  UNL1        0.1549
      6 C         141.2821  142.9102  162.9506 C.ar    1  UNL1        0.0553
      7 C         141.4000  141.9198  164.0710 C.ar    1  UNL1        0.1753
      8 F         142.6920  141.1913  164.2952 F       1  UNL1       -0.2009
      9 S         139.8723  144.6290  161.6060 S.O2    1  UNL1        0.0773
     10 O         139.0905  143.6302  160.8054 O.2     1  UNL1       -0.1498
     11 O         140.6541  145.6279  162.4067 O.2     1  UNL1       -0.1498
     12 N         139.7543  145.6194  160.4857 N.pl3   1  UNL1       -0.1925
     13 H         139.1329  146.3790  160.5636 H       1  UNL1        0.1758
     14 C         140.5833  145.4525  159.2467 C.ar    1  UNL1        0.1977
     15 N         141.9471  144.8323  159.1753 N.ar    1  UNL1       -0.1997
     16 C         142.4006  144.8730  157.7460 C.ar    1  UNL1        0.2082
     17 N         141.3169  145.5184  156.9341 N.ar    1  UNL1       -0.1840
     18 S         140.1937  145.8766  157.8616 S.2     1  UNL1        0.0508
     19 O         140.3439  140.6673  166.0874 O.3     1  UNL1       -0.4764
     20 C         139.4175  138.3239  165.1959 C.3     1  UNL1        0.0799
     21 C         138.3345  137.3789  165.6250 C.3     1  UNL1        0.0096
     22 C         137.6690  137.9570  166.8387 C.3     1  UNL1        0.0042
     23 C         138.3407  139.2592  167.1596 C.3     1  UNL1        0.0439
     24 C         139.4214  139.4860  166.1443 C.3     1  UNL1        0.1714
     25 C         138.5107  138.0542  162.0726 C.3     1  UNL1        0.1533
     26 N         139.9187  138.0152  162.5885 N.ar    1  UNL1       -0.2527
     27 N         141.1572  137.8453  161.7593 N.ar    1  UNL1       -0.1679
     28 C         142.3393  137.8643  162.6824 C.ar    1  UNL1        0.1213
     29 C         141.8315  138.0459  164.0822 C.ar    1  UNL1        0.0369
     30 C         140.3355  138.1391  164.0241 C.ar    1  UNL1        0.0603
@<TRIPOS>BOND
     1    25    26    1
     2    26    27   ar
     3    27    28   ar
     4    28    29   ar
     5    29    30   ar
     6    20    30    1
     7    20    21    1
     8    21    22    1
     9    22    23    1
    10    23    24    1
    11    24    19    1
    12    19     1    1
    13     1     2   ar
    14     2     3   ar
    15     3     4    1
    16     3     5   ar
    17     5     9    1
    18     9    10    2
    19     9    11    2
    20     9    12    1
    21    12    14    1
    22    14    15   ar
    23    15    16   ar
    24    16    17   ar
    25    17    18   ar
    26     5     6   ar
    27     6     7   ar
    28     7     8    1
    29    30    26   ar
    30    24    20    1
    31     7     1   ar
    32    18    14   ar
    33    12    13    1
@<TRIPOS>MOLECULE
*****
 30 33 0 0 0
SMALL
GASTEIGER

@<TRIPOS>ATOM
      1 C         141.2075  141.3946  164.3220 C.ar    1  UNL1        0.1679
      2 C         141.3803  141.0783  162.8660 C.ar    1  UNL1        0.0702
      3 C         141.2832  142.1722  161.8443 C.ar    1  UNL1        0.1620
      4 F         141.4560  141.8559  160.3881 F       1  UNL1       -0.2026
      5 C         141.0134  143.5823  162.2785 C.ar    1  UNL1        0.1549
      6 C         140.8406  143.8987  163.7346 C.ar    1  UNL1        0.0553
      7 C         140.9377  142.8048  164.7563 C.ar    1  UNL1        0.1753
      8 F         140.7650  143.1211  166.2124 F       1  UNL1       -0.2009
      9 S         140.9163  144.6762  161.2567 S.O2    1  UNL1        0.0773
     10 O         139.4227  144.6726  161.3948 O.2     1  UNL1       -0.1498
     11 O         142.4099  144.6799  161.1186 O.2     1  UNL1       -0.1498
     12 N         140.8192  145.7700  160.2349 N.pl3   1  UNL1       -0.1925
     13 H         140.5857  146.6849  160.5138 H       1  UNL1        0.1758
     14 C         141.0778  145.4700  158.7881 C.ar    1  UNL1        0.1977
     15 N         142.2206  145.9937  157.9697 N.ar    1  UNL1       -0.1997
     16 C         142.0881  145.4410  156.5815 C.ar    1  UNL1        0.2082
     17 N         140.8634  144.5757  156.5420 N.ar    1  UNL1       -0.1840
     18 S         140.2390  144.5936  157.9059 S.2     1  UNL1        0.0508
     19 O         141.3046  140.3007  165.3439 O.3     1  UNL1       -0.4764
     20 C         138.8310  139.3035  165.5214 C.3     1  UNL1        0.0799
     21 C         137.8769  139.0273  166.6453 C.3     1  UNL1        0.0096
     22 C         138.5417  139.4319  167.9277 C.3     1  UNL1        0.0042
     23 C         139.9066  139.9582  167.5962 C.3     1  UNL1        0.0439
     24 C         140.0854  139.8788  166.1090 C.3     1  UNL1        0.1714
     25 C         137.5339  141.4202  163.4030 C.3     1  UNL1        0.1533
     26 N         137.9793  140.0220  163.0917 N.ar    1  UNL1       -0.2527
     27 N         137.9067  139.3513  161.7519 N.ar    1  UNL1       -0.1679
     28 C         138.4579  137.9639  161.8976 C.ar    1  UNL1        0.1213
     29 C         138.8713  137.7772  163.3274 C.ar    1  UNL1        0.0369
     30 C         138.5755  139.0491  164.0654 C.ar    1  UNL1        0.0603
@<TRIPOS>BOND
     1    25    26    1
     2    26    27   ar
     3    27    28   ar
     4    28    29   ar
     5    29    30   ar
     6    20    30    1
     7    20    21    1
     8    21    22    1
     9    22    23    1
    10    23    24    1
    11    24    19    1
    12    19     1    1
    13     1     2   ar
    14     2     3   ar
    15     3     4    1
    16     3     5   ar
    17     5     9    1
    18     9    10    2
    19     9    11    2
    20     9    12    1
    21    12    14    1
    22    14    15   ar
    23    15    16   ar
    24    16    17   ar
    25    17    18   ar
    26     5     6   ar
    27     6     7   ar
    28     7     8    1
    29    30    26   ar
    30    24    20    1
    31     7     1   ar
    32    18    14   ar
    33    12    13    1
@<TRIPOS>MOLECULE
*****
 30 33 0 0 0
SMALL
GASTEIGER

@<TRIPOS>ATOM
      1 C         139.6684  141.2520  165.1738 C.ar    1  UNL1        0.1679
      2 C         139.3075  142.6722  165.4944 C.ar    1  UNL1        0.0702
      3 C         139.5717  143.7575  164.4933 C.ar    1  UNL1        0.1620
      4 F         139.2108  145.1777  164.8139 F       1  UNL1       -0.2026
      5 C         140.1970  143.4226  163.1716 C.ar    1  UNL1        0.1549
      6 C         140.5580  142.0025  162.8509 C.ar    1  UNL1        0.0553
      7 C         140.2937  140.9172  163.8520 C.ar    1  UNL1        0.1753
      8 F         140.6546  139.4969  163.5315 F       1  UNL1       -0.2009
      9 S         140.4613  144.5080  162.1704 S.O2    1  UNL1        0.0773
     10 O         139.1448  144.2207  161.5114 O.2     1  UNL1       -0.1498
     11 O         141.7778  144.7953  162.8294 O.2     1  UNL1       -0.1498
     12 N         140.7255  145.5933  161.1693 N.pl3   1  UNL1       -0.1925
     13 H         140.5890  146.5361  161.4178 H       1  UNL1        0.1758
     14 C         141.1978  145.2422  159.7895 C.ar    1  UNL1        0.1977
     15 N         142.3620  144.3577  159.4545 N.ar    1  UNL1       -0.1997
     16 C         142.4724  144.2828  157.9605 C.ar    1  UNL1        0.2082
     17 N         141.3764  145.1211  157.3721 N.ar    1  UNL1       -0.1840
     18 S         140.5886  145.7140  158.5026 S.2     1  UNL1        0.0508
     19 O         139.4041  140.1667  166.1749 O.3     1  UNL1       -0.4764
     20 C         141.6958  139.9750  167.5373 C.3     1  UNL1        0.0799
     21 C         142.0670  139.9506  168.9905 C.3     1  UNL1        0.0096
     22 C         140.8049  140.0645  169.7933 C.3     1  UNL1        0.0042
     23 C         139.6538  140.1593  168.8362 C.3     1  UNL1        0.0439
     24 C         140.2044  140.1040  167.4420 C.3     1  UNL1        0.1714
     25 C         143.1141  142.4935  166.0223 C.3     1  UNL1        0.1533
     26 N         143.3007  141.0435  165.6860 N.ar    1  UNL1       -0.2527
     27 N         144.1719  140.4967  164.5942 N.ar    1  UNL1       -0.1679
     28 C         144.0585  139.0012  164.6159 C.ar    1  UNL1        0.1213
     29 C         143.1170  138.6237  165.7210 C.ar    1  UNL1        0.0369
     30 C         142.6487  139.8860  166.3824 C.ar    1  UNL1        0.0603
@<TRIPOS>BOND
     1    25    26    1
     2    26    27   ar
     3    27    28   ar
     4    28    29   ar
     5    29    30   ar
     6    20    30    1
     7    20    21    1
     8    21    22    1
     9    22    23    1
    10    23    24    1
    11    24    19    1
    12    19     1    1
    13     1     2   ar
    14     2     3   ar
    15     3     4    1
    16     3     5   ar
    17     5     9    1
    18     9    10    2
    19     9    11    2
    20     9    12    1
    21    12    14    1
    22    14    15   ar
    23    15    16   ar
    24    16    17   ar
    25    17    18   ar
    26     5     6   ar
    27     6     7   ar
    28     7     8    1
    29    30    26   ar
    30    24    20    1
    31     7     1   ar
    32    18    14   ar
    33    12    13    1
@<TRIPOS>MOLECULE
*****
 30 33 0 0 0
SMALL
GASTEIGER

@<TRIPOS>ATOM
      1 C         140.1839  142.2504  164.7587 C.ar    1  UNL1        0.1679
      2 C         140.8333  143.5853  164.9736 C.ar    1  UNL1        0.0702
      3 C         141.1187  144.4778  163.8023 C.ar    1  UNL1        0.1620
      4 F         141.7681  145.8128  164.0172 F       1  UNL1       -0.2026
      5 C         140.7548  144.0353  162.4161 C.ar    1  UNL1        0.1549
      6 C         140.1054  142.7004  162.2011 C.ar    1  UNL1        0.0553
      7 C         139.8200  141.8080  163.3724 C.ar    1  UNL1        0.1753
      8 F         139.1706  140.4729  163.1575 F       1  UNL1       -0.2009
      9 S         141.0402  144.9278  161.2447 S.O2    1  UNL1        0.0773
     10 O         142.4798  144.5076  161.2754 O.2     1  UNL1       -0.1498
     11 O         139.6006  145.3480  161.2140 O.2     1  UNL1       -0.1498
     12 N         141.3257  145.8203  160.0734 N.pl3   1  UNL1       -0.1925
     13 H         141.3947  146.7940  160.2017 H       1  UNL1        0.1758
     14 C         141.5060  145.2293  158.7065 C.ar    1  UNL1        0.1977
     15 N         142.3593  145.7914  157.6084 N.ar    1  UNL1       -0.1997
     16 C         142.2453  144.8819  156.4211 C.ar    1  UNL1        0.2082
     17 N         141.3215  143.7577  156.7853 N.ar    1  UNL1       -0.1840
     18 S         140.8645  143.9724  158.1979 S.2     1  UNL1        0.0508
     19 O         139.8985  141.3579  165.9300 O.3     1  UNL1       -0.4764
     20 C         141.4910  140.7552  167.9905 C.3     1  UNL1        0.0799
     21 C         142.6188  139.7916  168.2129 C.3     1  UNL1        0.0096
     22 C         142.8380  139.0323  166.9379 C.3     1  UNL1        0.0042
     23 C         141.8456  139.5266  165.9276 C.3     1  UNL1        0.0439
     24 C         141.0131  140.5914  166.5781 C.3     1  UNL1        0.1714
     25 C         140.1933  139.9601  170.8773 C.3     1  UNL1        0.1533
     26 N         140.3417  141.3487  170.3297 N.ar    1  UNL1       -0.2527
     27 N         139.9195  142.6157  171.0128 N.ar    1  UNL1       -0.1679
     28 C         140.2551  143.7641  170.1081 C.ar    1  UNL1        0.1213
     29 C         140.8846  143.2069  168.8658 C.ar    1  UNL1        0.0369
     30 C         140.9381  141.7141  169.0028 C.ar    1  UNL1        0.0603
@<TRIPOS>BOND
     1    25    26    1
     2    26    27   ar
     3    27    28   ar
     4    28    29   ar
     5    29    30   ar
     6    20    30    1
     7    20    21    1
     8    21    22    1
     9    22    23    1
    10    23    24    1
    11    24    19    1
    12    19     1    1
    13     1     2   ar
    14     2     3   ar
    15     3     4    1
    16     3     5   ar
    17     5     9    1
    18     9    10    2
    19     9    11    2
    20     9    12    1
    21    12    14    1
    22    14    15   ar
    23    15    16   ar
    24    16    17   ar
    25    17    18   ar
    26     5     6   ar
    27     6     7   ar
    28     7     8    1
    29    30    26   ar
    30    24    20    1
    31     7     1   ar
    32    18    14   ar
    33    12    13    1
@<TRIPOS>MOLECULE
*****
 30 33 0 0 0
SMALL
GASTEIGER

@<TRIPOS>ATOM
      1 C         141.5640  141.3468  164.6223 C.ar    1  UNL1        0.1679
      2 C         141.9206  142.7600  164.9769 C.ar    1  UNL1        0.0702
      3 C         141.8864  143.8286  163.9249 C.ar    1  UNL1        0.1620
      4 F         142.2429  145.2418  164.2794 F       1  UNL1       -0.2026
      5 C         141.4956  143.4840  162.5183 C.ar    1  UNL1        0.1549
      6 C         141.1390  142.0709  162.1637 C.ar    1  UNL1        0.0553
      7 C         141.1732  141.0023  163.2157 C.ar    1  UNL1        0.1753
      8 F         140.8166  139.5890  162.8612 F       1  UNL1       -0.2009
      9 S         141.4613  144.5528  161.4662 S.O2    1  UNL1        0.0773
     10 O         139.9893  144.7294  161.6936 O.2     1  UNL1       -0.1498
     11 O         142.9334  144.3761  161.2388 O.2     1  UNL1       -0.1498
     12 N         141.4271  145.6214  160.4142 N.pl3   1  UNL1       -0.1925
     13 H         141.3509  146.5675  160.6759 H       1  UNL1        0.1758
     14 C         141.5089  145.2487  158.9635 C.ar    1  UNL1        0.1977
     15 N         142.2842  145.9796  157.9078 N.ar    1  UNL1       -0.1997
     16 C         142.0842  145.2623  156.6057 C.ar    1  UNL1        0.2082
     17 N         141.1852  144.0880  156.8567 N.ar    1  UNL1       -0.1840
     18 S         140.8296  144.0796  158.3140 S.2     1  UNL1        0.0508
     19 O         141.5982  140.2781  165.6744 O.3     1  UNL1       -0.4764
     20 C         139.9095  140.2866  167.7463 C.3     1  UNL1        0.0799
     21 C         138.5846  139.6463  168.0374 C.3     1  UNL1        0.0096
     22 C         138.1898  138.8329  166.8405 C.3     1  UNL1        0.0042
     23 C         139.2707  138.9706  165.8096 C.3     1  UNL1        0.0439
     24 C         140.3335  139.8691  166.3694 C.3     1  UNL1        0.1714
     25 C         142.2133  139.3526  169.8604 C.3     1  UNL1        0.1533
     26 N         141.7346  140.7573  169.6416 N.ar    1  UNL1       -0.2527
     27 N         142.2308  141.9792  170.3562 N.ar    1  UNL1       -0.1679
     28 C         141.4786  143.1637  169.8260 C.ar    1  UNL1        0.1213
     29 C         140.5175  142.6738  168.7838 C.ar    1  UNL1        0.0369
     30 C         140.6757  141.1866  168.6698 C.ar    1  UNL1        0.0603
@<TRIPOS>BOND
     1    25    26    1
     2    26    27   ar
     3    27    28   ar
     4    28    29   ar
     5    29    30   ar
     6    20    30    1
     7    20    21    1
     8    21    22    1
     9    22    23    1
    10    23    24    1
    11    24    19    1
    12    19     1    1
    13     1     2   ar
    14     2     3   ar
    15     3     4    1
    16     3     5   ar
    17     5     9    1
    18     9    10    2
    19     9    11    2
    20     9    12    1
    21    12    14    1
    22    14    15   ar
    23    15    16   ar
    24    16    17   ar
    25    17    18   ar
    26     5     6   ar
    27     6     7   ar
    28     7     8    1
    29    30    26   ar
    30    24    20    1
    31     7     1   ar
    32    18    14   ar
    33    12    13    1
@<TRIPOS>MOLECULE
*****
 30 33 0 0 0
SMALL
GASTEIGER

@<TRIPOS>ATOM
      1 C         140.2471  142.0848  164.7549 C.ar    1  UNL1        0.1679
      2 C         140.8097  143.4590  164.9668 C.ar    1  UNL1        0.0702
      3 C         141.1250  144.3304  163.7873 C.ar    1  UNL1        0.1620
      4 F         141.6877  145.7047  163.9992 F       1  UNL1       -0.2026
      5 C         140.8778  143.8276  162.3959 C.ar    1  UNL1        0.1549
      6 C         140.3151  142.4534  162.1840 C.ar    1  UNL1        0.0553
      7 C         139.9998  141.5820  163.3635 C.ar    1  UNL1        0.1753
      8 F         139.4372  140.2077  163.1516 F       1  UNL1       -0.2009
      9 S         141.1931  144.6990  161.2164 S.O2    1  UNL1        0.0773
     10 O         142.6462  144.3508  161.3477 O.2     1  UNL1       -0.1498
     11 O         139.7401  145.0473  161.0851 O.2     1  UNL1       -0.1498
     12 N         141.5085  145.5704  160.0369 N.pl3   1  UNL1       -0.1925
     13 H         142.0340  146.3939  160.1598 H       1  UNL1        0.1758
     14 C         141.0233  145.1872  158.6702 C.ar    1  UNL1        0.1977
     15 N         140.3044  146.0839  157.7064 N.ar    1  UNL1       -0.1997
     16 C         140.0087  145.2909  156.4679 C.ar    1  UNL1        0.2082
     17 N         140.5449  143.9041  156.6664 N.ar    1  UNL1       -0.1840
     18 S         141.1720  143.8400  158.0276 S.2     1  UNL1        0.0508
     19 O         139.9317  141.2134  165.9344 O.3     1  UNL1       -0.4764
     20 C         141.8875  139.4311  166.3125 C.3     1  UNL1        0.0799
     21 C         142.8727  139.1540  167.4092 C.3     1  UNL1        0.0096
     22 C         142.6379  140.1503  168.5058 C.3     1  UNL1        0.0042
     23 C         141.5076  141.0430  168.0867 C.3     1  UNL1        0.0439
     24 C         141.0439  140.5984  166.7312 C.3     1  UNL1        0.1714
     25 C         143.7266  139.8677  163.6522 C.3     1  UNL1        0.1533
     26 N         142.6125  138.8743  163.8006 N.ar    1  UNL1       -0.2527
     27 N         142.1481  137.9072  162.7523 N.ar    1  UNL1       -0.1679
     28 C         141.0159  137.1087  163.3271 C.ar    1  UNL1        0.1213
     29 C         140.7804  137.5824  164.7308 C.ar    1  UNL1        0.0369
     30 C         141.7672  138.6736  165.0234 C.ar    1  UNL1        0.0603
@<TRIPOS>BOND
     1    25    26    1
     2    26    27   ar
     3    27    28   ar
     4    28    29   ar
     5    29    30   ar
     6    20    30    1
     7    20    21    1
     8    21    22    1
     9    22    23    1
    10    23    24    1
    11    24    19    1
    12    19     1    1
    13     1     2   ar
    14     2     3   ar
    15     3     4    1
    16     3     5   ar
    17     5     9    1
    18     9    10    2
    19     9    11    2
    20     9    12    1
    21    12    14    1
    22    14    15   ar
    23    15    16   ar
    24    16    17   ar
    25    17    18   ar
    26     5     6   ar
    27     6     7   ar
    28     7     8    1
    29    30    26   ar
    30    24    20    1
    31     7     1   ar
    32    18    14   ar
    33    12    13    1
@<TRIPOS>MOLECULE
*****
 30 33 0 0 0
SMALL
GASTEIGER

@<TRIPOS>ATOM
      1 C         142.0593  143.1448  164.9774 C.ar    1  UNL1        0.1679
      2 C         140.5685  143.2220  164.8303 C.ar    1  UNL1        0.0702
      3 C         139.9670  143.8432  163.6047 C.ar    1  UNL1        0.1620
      4 F         138.4762  143.9205  163.4576 F       1  UNL1       -0.2026
      5 C         140.8562  144.3872  162.5261 C.ar    1  UNL1        0.1549
      6 C         142.3470  144.3100  162.6731 C.ar    1  UNL1        0.0553
      7 C         142.9485  143.6888  163.8987 C.ar    1  UNL1        0.1753
      8 F         144.4393  143.6115  164.0458 F       1  UNL1       -0.2009
      9 S         140.2546  145.0084  161.3004 S.O2    1  UNL1        0.0773
     10 O         140.1424  143.6527  160.6684 O.2     1  UNL1       -0.1498
     11 O         140.3668  146.3641  161.9324 O.2     1  UNL1       -0.1498
     12 N         139.6530  145.6296  160.0748 N.pl3   1  UNL1       -0.1925
     13 H         138.7235  145.9535  160.0927 H       1  UNL1        0.1758
     14 C         140.4677  145.7572  158.8217 C.ar    1  UNL1        0.1977
     15 N         141.9537  145.5834  158.7146 N.ar    1  UNL1       -0.1997
     16 C         142.3437  145.7998  157.2825 C.ar    1  UNL1        0.2082
     17 N         141.0986  146.1073  156.5044 N.ar    1  UNL1       -0.1840
     18 S         139.9391  146.0810  157.4557 S.2     1  UNL1        0.0508
     19 O         142.6609  142.5236  166.2030 O.3     1  UNL1       -0.4764
     20 C         142.6916  140.1311  167.3947 C.3     1  UNL1        0.0799
     21 C         143.1178  138.7507  166.9914 C.3     1  UNL1        0.0096
     22 C         143.6318  138.8169  165.5837 C.3     1  UNL1        0.0042
     23 C         143.5231  140.2383  165.1171 C.3     1  UNL1        0.0439
     24 C         142.9421  141.0506  166.2363 C.3     1  UNL1        0.1714
     25 C         139.5370  140.0279  168.2241 C.3     1  UNL1        0.1533
     26 N         140.6660  140.4758  169.1044 N.ar    1  UNL1       -0.2527
     27 N         140.5432  140.9550  170.5205 N.ar    1  UNL1       -0.1679
     28 C         141.9172  141.2985  171.0145 C.ar    1  UNL1        0.1213
     29 C         142.8892  141.0317  169.9036 C.ar    1  UNL1        0.0369
     30 C         142.1159  140.5233  168.7232 C.ar    1  UNL1        0.0603
@<TRIPOS>BOND
     1    25    26    1
     2    26    27   ar
     3    27    28   ar
     4    28    29   ar
     5    29    30   ar
     6    20    30    1
     7    20    21    1
     8    21    22    1
     9    22    23    1
    10    23    24    1
    11    24    19    1
    12    19     1    1
    13     1     2   ar
    14     2     3   ar
    15     3     4    1
    16     3     5   ar
    17     5     9    1
    18     9    10    2
    19     9    11    2
    20     9    12    1
    21    12    14    1
    22    14    15   ar
    23    15    16   ar
    24    16    17   ar
    25    17    18   ar
    26     5     6   ar
    27     6     7   ar
    28     7     8    1
    29    30    26   ar
    30    24    20    1
    31     7     1   ar
    32    18    14   ar
    33    12    13    1
@<TRIPOS>MOLECULE
*****
 30 33 0 0 0
SMALL
GASTEIGER

@<TRIPOS>ATOM
      1 C         139.9160  141.5211  164.9456 C.ar    1  UNL1        0.1679
      2 C         140.0204  141.1153  163.5053 C.ar    1  UNL1        0.0702
      3 C         140.3615  142.1368  162.4612 C.ar    1  UNL1        0.1620
      4 F         140.4660  141.7311  161.0209 F       1  UNL1       -0.2026
      5 C         140.5982  143.5641  162.8574 C.ar    1  UNL1        0.1549
      6 C         140.4937  143.9698  164.2977 C.ar    1  UNL1        0.0553
      7 C         140.1526  142.9483  165.3417 C.ar    1  UNL1        0.1753
      8 F         140.0482  143.3541  166.7821 F       1  UNL1       -0.2009
      9 S         140.9393  144.5856  161.8132 S.O2    1  UNL1        0.0773
     10 O         142.3980  144.4033  162.1115 O.2     1  UNL1       -0.1498
     11 O         139.4806  144.7679  161.5149 O.2     1  UNL1       -0.1498
     12 N         141.2805  145.6070  160.7691 N.pl3   1  UNL1       -0.1925
     13 H         141.4082  146.5490  161.0252 H       1  UNL1        0.1758
     14 C         141.4270  145.1933  159.3347 C.ar    1  UNL1        0.1977
     15 N         142.5442  144.3711  158.7639 N.ar    1  UNL1       -0.1997
     16 C         142.2896  144.1988  157.2958 C.ar    1  UNL1        0.2082
     17 N         141.0150  144.9145  156.9591 N.ar    1  UNL1       -0.1840
     18 S         140.4819  145.5292  158.2194 S.2     1  UNL1        0.0508
     19 O         139.5748  140.4996  165.9897 O.3     1  UNL1       -0.4764
     20 C         141.9635  139.6325  166.8188 C.3     1  UNL1        0.0799
     21 C         142.6086  139.4187  168.1560 C.3     1  UNL1        0.0096
     22 C         141.6187  139.8038  169.2152 C.3     1  UNL1        0.0042
     23 C         140.3618  140.2556  168.5326 C.3     1  UNL1        0.0439
     24 C         140.5748  140.1497  167.0516 C.3     1  UNL1        0.1714
     25 C         141.0325  137.3683  164.6610 C.3     1  UNL1        0.1533
     26 N         142.1680  138.3337  164.4916 N.ar    1  UNL1       -0.2527
     27 N         143.0750  138.4278  163.3006 N.ar    1  UNL1       -0.1679
     28 C         144.0634  139.5266  163.5563 C.ar    1  UNL1        0.1213
     29 C         143.7673  140.1117  164.9054 C.ar    1  UNL1        0.0369
     30 C         142.5959  139.3744  165.4834 C.ar    1  UNL1        0.0603
@<TRIPOS>BOND
     1    25    26    1
     2    26    27   ar
     3    27    28   ar
     4    28    29   ar
     5    29    30   ar
     6    20    30    1
     7    20    21    1
     8    21    22    1
     9    22    23    1
    10    23    24    1
    11    24    19    1
    12    19     1    1
    13     1     2   ar
    14     2     3   ar
    15     3     4    1
    16     3     5   ar
    17     5     9    1
    18     9    10    2
    19     9    11    2
    20     9    12    1
    21    12    14    1
    22    14    15   ar
    23    15    16   ar
    24    16    17   ar
    25    17    18   ar
    26     5     6   ar
    27     6     7   ar
    28     7     8    1
    29    30    26   ar
    30    24    20    1
    31     7     1   ar
    32    18    14   ar
    33    12    13    1
