@<TRIPOS>MOLECULE
*****
 19 21 0 0 0
SMALL
GASTEIGER

@<TRIPOS>ATOM
      1 C         140.2909  140.6831  164.7011 C.ar    1  UNL1        0.1296
      2 N         139.9475  139.7152  163.6078 N.ar    1  UNL1       -0.2293
      3 C         139.1408  138.4891  163.9176 C.ar    1  UNL1        0.1018
      4 C         138.6776  138.2308  165.3207 C.ar    1  UNL1        0.0398
      5 C         139.0210  139.1987  166.4140 C.ar    1  UNL1        0.0852
      6 N         138.7059  139.2095  167.8805 N.2     1  UNL1       -0.2455
      7 C         139.3178  140.4423  168.4770 C.2     1  UNL1        0.0777
      8 C         139.3333  140.9779  169.8780 C.2     1  UNL1        0.0185
      9 C         140.0420  142.2646  170.1812 C.2     1  UNL1       -0.0027
     10 C         140.7353  143.0157  169.0834 C.2     1  UNL1       -0.0213
     11 C         140.7198  142.4801  167.6824 C.3     1  UNL1        0.0540
     12 C         140.0111  141.1934  167.3792 C.2     1  UNL1        0.0040
     13 C         139.8276  140.4248  166.1042 C.ar    1  UNL1        0.0468
     14 N         141.0976  141.9092  164.3913 N.pl3   1  UNL1       -0.3181
     15 H         142.0567  141.9361  164.6116 H       1  UNL1        0.1482
     16 C         140.4428  143.0944  163.7458 C.3     1  UNL1        0.0882
     17 C         140.2761  144.3708  164.5158 C.3     1  UNL1        0.0212
     18 C         137.7199  143.9467  164.7071 C.3     1  UNL1        0.0001
     19 C         138.9404  144.7261  165.0986 C.3     1  UNL1        0.0017
@<TRIPOS>BOND
     1    18    19    1
     2    19    17    1
     3    17    16    1
     4    16    14    1
     5    14     1    1
     6     1     2   ar
     7     2     3   ar
     8     3     4   ar
     9     4     5   ar
    10     5     6    2
    11     6     7    1
    12     7     8    2
    13     8     9    1
    14     9    10    2
    15    10    11    1
    16    11    12    1
    17    12    13    2
    18    13     1   ar
    19    13     5   ar
    20    12     7    1
    21    14    15    1
@<TRIPOS>MOLECULE
*****
 19 21 0 0 0
SMALL
GASTEIGER

@<TRIPOS>ATOM
      1 C         141.5589  140.3132  165.0008 C.ar    1  UNL1        0.1296
      2 N         142.4448  139.9229  163.8550 N.ar    1  UNL1       -0.2293
      3 C         143.6730  139.0984  164.1036 C.ar    1  UNL1        0.1018
      4 C         144.0153  138.6643  165.4980 C.ar    1  UNL1        0.0398
      5 C         143.1294  139.0547  166.6438 C.ar    1  UNL1        0.0852
      6 N         143.2104  138.7759  168.1155 N.2     1  UNL1       -0.2455
      7 C         142.0323  139.4281  168.7764 C.2     1  UNL1        0.0777
      8 C         141.5919  139.4891  170.2089 C.2     1  UNL1        0.0185
      9 C         140.3422  140.2320  170.5783 C.2     1  UNL1       -0.0027
     10 C         139.5331  140.9139  169.5151 C.2     1  UNL1       -0.0213
     11 C         139.9736  140.8528  168.0825 C.3     1  UNL1        0.0540
     12 C         141.2232  140.1099  167.7132 C.2     1  UNL1        0.0040
     13 C         141.9012  139.8791  166.3952 C.ar    1  UNL1        0.0468
     14 N         140.3307  141.1377  164.7522 N.pl3   1  UNL1       -0.3181
     15 H         140.3518  142.1103  164.9034 H       1  UNL1        0.1482
     16 C         139.0704  140.4803  164.2731 C.3     1  UNL1        0.0882
     17 C         138.0793  139.9468  165.2647 C.3     1  UNL1        0.0212
     18 C         137.4551  138.1823  167.0667 C.3     1  UNL1        0.0001
     19 C         138.3088  138.6127  165.9108 C.3     1  UNL1        0.0017
@<TRIPOS>BOND
     1    18    19    1
     2    19    17    1
     3    17    16    1
     4    16    14    1
     5    14     1    1
     6     1     2   ar
     7     2     3   ar
     8     3     4   ar
     9     4     5   ar
    10     5     6    2
    11     6     7    1
    12     7     8    2
    13     8     9    1
    14     9    10    2
    15    10    11    1
    16    11    12    1
    17    12    13    2
    18    13     1   ar
    19    13     5   ar
    20    12     7    1
    21    14    15    1
@<TRIPOS>MOLECULE
*****
 19 21 0 0 0
SMALL
GASTEIGER

@<TRIPOS>ATOM
      1 C         137.9280  142.3418  162.9831 C.ar    1  UNL1        0.1296
      2 N         137.9789  143.5399  162.0820 N.ar    1  UNL1       -0.2293
      3 C         138.8010  144.7339  162.4675 C.ar    1  UNL1        0.1018
      4 C         139.5721  144.7298  163.7541 C.ar    1  UNL1        0.0398
      5 C         139.5212  143.5316  164.6552 C.ar    1  UNL1        0.0852
      6 N         140.1707  143.2405  165.9755 N.2     1  UNL1       -0.2455
      7 C         139.7500  141.8665  166.4061 C.2     1  UNL1        0.0777
      8 C         140.0777  141.0515  167.6219 C.2     1  UNL1        0.0185
      9 C         139.4958  139.6784  167.7835 C.2     1  UNL1       -0.0027
     10 C         138.5863  139.1204  166.7292 C.2     1  UNL1       -0.0213
     11 C         138.2587  139.9355  165.5134 C.3     1  UNL1        0.0540
     12 C         138.8406  141.3085  165.3518 C.2     1  UNL1        0.0040
     13 C         138.6991  142.3376  164.2697 C.ar    1  UNL1        0.0468
     14 N         137.1059  141.1477  162.5976 N.pl3   1  UNL1       -0.3181
     15 H         136.2095  141.0215  162.9846 H       1  UNL1        0.1482
     16 C         137.6497  140.1460  161.6224 C.3     1  UNL1        0.0882
     17 C         138.9571  139.4644  161.8981 C.3     1  UNL1        0.0212
     18 C         140.0127  137.5396  163.2877 C.3     1  UNL1        0.0001
     19 C         138.9785  138.0237  162.3150 C.3     1  UNL1        0.0017
@<TRIPOS>BOND
     1    18    19    1
     2    19    17    1
     3    17    16    1
     4    16    14    1
     5    14     1    1
     6     1     2   ar
     7     2     3   ar
     8     3     4   ar
     9     4     5   ar
    10     5     6    2
    11     6     7    1
    12     7     8    2
    13     8     9    1
    14     9    10    2
    15    10    11    1
    16    11    12    1
    17    12    13    2
    18    13     1   ar
    19    13     5   ar
    20    12     7    1
    21    14    15    1
@<TRIPOS>MOLECULE
*****
 19 21 0 0 0
SMALL
GASTEIGER

@<TRIPOS>ATOM
      1 C         138.0399  142.4911  161.9818 C.ar    1  UNL1        0.1296
      2 N         138.1202  143.0995  160.6131 N.ar    1  UNL1       -0.2293
      3 C         138.5745  142.2699  159.4489 C.ar    1  UNL1        0.1018
      4 C         138.9484  140.8317  159.6534 C.ar    1  UNL1        0.0398
      5 C         138.8681  140.2232  161.0221 C.ar    1  UNL1        0.0852
      6 N         139.1697  138.8431  161.5262 N.2     1  UNL1       -0.2455
      7 C         138.9018  138.8197  163.0020 C.2     1  UNL1        0.0777
      8 C         139.0230  137.7313  164.0269 C.2     1  UNL1        0.0185
      9 C         138.6770  138.0087  165.4598 C.2     1  UNL1       -0.0027
     10 C         138.2098  139.3744  165.8678 C.2     1  UNL1       -0.0213
     11 C         138.0887  140.4629  164.8428 C.3     1  UNL1        0.0540
     12 C         138.4347  140.1855  163.4099 C.2     1  UNL1        0.0040
     13 C         138.4139  141.0529  162.1863 C.ar    1  UNL1        0.0468
     14 N         137.5857  143.3208  163.1460 N.pl3   1  UNL1       -0.3181
     15 H         136.7526  143.0921  163.6182 H       1  UNL1        0.1482
     16 C         138.4007  144.4989  163.5907 C.3     1  UNL1        0.0882
     17 C         138.7656  144.6553  165.0372 C.3     1  UNL1        0.0212
     18 C         140.8194  143.0734  164.8659 C.3     1  UNL1        0.0001
     19 C         139.7206  143.6925  165.6781 C.3     1  UNL1        0.0017
@<TRIPOS>BOND
     1    18    19    1
     2    19    17    1
     3    17    16    1
     4    16    14    1
     5    14     1    1
     6     1     2   ar
     7     2     3   ar
     8     3     4   ar
     9     4     5   ar
    10     5     6    2
    11     6     7    1
    12     7     8    2
    13     8     9    1
    14     9    10    2
    15    10    11    1
    16    11    12    1
    17    12    13    2
    18    13     1   ar
    19    13     5   ar
    20    12     7    1
    21    14    15    1
@<TRIPOS>MOLECULE
*****
 19 21 0 0 0
SMALL
GASTEIGER

@<TRIPOS>ATOM
      1 C         142.0544  144.3871  161.0415 C.ar    1  UNL1        0.1296
      2 N         142.5692  144.1333  159.6557 N.ar    1  UNL1       -0.2293
      3 C         141.6653  143.5381  158.6170 C.ar    1  UNL1        0.1018
      4 C         140.2466  143.1968  158.9643 C.ar    1  UNL1        0.0398
      5 C         139.7317  143.4506  160.3501 C.ar    1  UNL1        0.0852
      6 N         138.3907  143.2186  160.9808 N.2     1  UNL1       -0.2455
      7 C         138.4658  143.6704  162.4092 C.2     1  UNL1        0.0777
      8 C         137.4500  143.6824  163.5128 C.2     1  UNL1        0.0185
      9 C         137.8217  144.2055  164.8686 C.2     1  UNL1       -0.0027
     10 C         139.2092  144.7168  165.1207 C.2     1  UNL1       -0.0213
     11 C         140.2250  144.7048  164.0170 C.3     1  UNL1        0.0540
     12 C         139.8533  144.1817  162.6613 C.2     1  UNL1        0.0040
     13 C         140.6356  144.0458  161.3887 C.ar    1  UNL1        0.0468
     14 N         142.9584  144.9824  162.0801 N.pl3   1  UNL1       -0.3181
     15 H         142.8333  145.9165  162.3646 H       1  UNL1        0.1482
     16 C         144.0529  144.1542  162.6852 C.3     1  UNL1        0.0882
     17 C         143.8936  143.5961  164.0684 C.3     1  UNL1        0.0212
     18 C         145.6672  141.7470  163.6376 C.3     1  UNL1        0.0001
     19 C         144.8820  142.5968  164.5923 C.3     1  UNL1        0.0017
@<TRIPOS>BOND
     1    18    19    1
     2    19    17    1
     3    17    16    1
     4    16    14    1
     5    14     1    1
     6     1     2   ar
     7     2     3   ar
     8     3     4   ar
     9     4     5   ar
    10     5     6    2
    11     6     7    1
    12     7     8    2
    13     8     9    1
    14     9    10    2
    15    10    11    1
    16    11    12    1
    17    12    13    2
    18    13     1   ar
    19    13     5   ar
    20    12     7    1
    21    14    15    1
@<TRIPOS>MOLECULE
*****
 19 21 0 0 0
SMALL
GASTEIGER

@<TRIPOS>ATOM
      1 C         138.6631  139.2464  163.7241 C.ar    1  UNL1        0.1296
      2 N         138.3360  138.0888  162.8280 N.ar    1  UNL1       -0.2293
      3 C         137.7681  138.3351  161.4617 C.ar    1  UNL1        0.1018
      4 C         137.5274  139.7390  160.9915 C.ar    1  UNL1        0.0398
      5 C         137.8546  140.8966  161.8876 C.ar    1  UNL1        0.0852
      6 N         137.7266  142.3792  161.6993 N.2     1  UNL1       -0.2455
      7 C         138.2153  143.0492  162.9492 C.2     1  UNL1        0.0777
      8 C         138.3243  144.4942  163.3365 C.2     1  UNL1        0.0185
      9 C         138.8634  144.8706  164.6847 C.2     1  UNL1       -0.0027
     10 C         139.2935  143.8021  165.6455 C.2     1  UNL1       -0.0213
     11 C         139.1845  142.3571  165.2582 C.3     1  UNL1        0.0540
     12 C         138.6454  141.9806  163.9100 C.2     1  UNL1        0.0040
     13 C         138.4224  140.6503  163.2539 C.ar    1  UNL1        0.0468
     14 N         139.2310  139.0000  165.0905 N.pl3   1  UNL1       -0.3181
     15 H         140.2057  139.0139  165.2283 H       1  UNL1        0.1482
     16 C         138.3138  138.7324  166.2468 C.3     1  UNL1        0.0882
     17 C         138.5665  139.3884  167.5719 C.3     1  UNL1        0.0212
     18 C         140.0426  141.0848  168.8732 C.3     1  UNL1        0.0001
     19 C         139.9143  139.9730  167.8744 C.3     1  UNL1        0.0017
@<TRIPOS>BOND
     1    18    19    1
     2    19    17    1
     3    17    16    1
     4    16    14    1
     5    14     1    1
     6     1     2   ar
     7     2     3   ar
     8     3     4   ar
     9     4     5   ar
    10     5     6    2
    11     6     7    1
    12     7     8    2
    13     8     9    1
    14     9    10    2
    15    10    11    1
    16    11    12    1
    17    12    13    2
    18    13     1   ar
    19    13     5   ar
    20    12     7    1
    21    14    15    1
@<TRIPOS>MOLECULE
*****
 19 21 0 0 0
SMALL
GASTEIGER

@<TRIPOS>ATOM
      1 C         138.1289  140.1512  163.3387 C.ar    1  UNL1        0.1296
      2 N         137.7140  139.3249  162.1575 N.ar    1  UNL1       -0.2293
      3 C         138.4345  138.0466  161.8462 C.ar    1  UNL1        0.1018
      4 C         139.5699  137.5946  162.7161 C.ar    1  UNL1        0.0398
      5 C         139.9847  138.4210  163.8973 C.ar    1  UNL1        0.0852
      6 N         141.0585  138.2316  164.9274 N.2     1  UNL1       -0.2455
      7 C         141.0016  139.3927  165.8752 C.2     1  UNL1        0.0777
      8 C         141.8164  139.7413  167.0854 C.2     1  UNL1        0.0185
      9 C         141.5222  140.9969  167.8514 C.2     1  UNL1       -0.0027
     10 C         140.4132  141.9040  167.4071 C.2     1  UNL1       -0.0213
     11 C         139.5985  141.5555  166.1969 C.3     1  UNL1        0.0540
     12 C         139.8927  140.2998  165.4310 C.2     1  UNL1        0.0040
     13 C         139.2642  139.6992  164.2086 C.ar    1  UNL1        0.0468
     14 N         137.4083  141.4295  163.6499 N.pl3   1  UNL1       -0.3181
     15 H         136.7133  141.4457  164.3470 H       1  UNL1        0.1482
     16 C         137.7467  142.6832  162.8989 C.3     1  UNL1        0.0882
     17 C         137.6246  144.0174  163.5733 C.3     1  UNL1        0.0212
     18 C         138.5673  145.0516  165.7624 C.3     1  UNL1        0.0001
     19 C         138.7779  144.5696  164.3575 C.3     1  UNL1        0.0017
@<TRIPOS>BOND
     1    18    19    1
     2    19    17    1
     3    17    16    1
     4    16    14    1
     5    14     1    1
     6     1     2   ar
     7     2     3   ar
     8     3     4   ar
     9     4     5   ar
    10     5     6    2
    11     6     7    1
    12     7     8    2
    13     8     9    1
    14     9    10    2
    15    10    11    1
    16    11    12    1
    17    12    13    2
    18    13     1   ar
    19    13     5   ar
    20    12     7    1
    21    14    15    1
@<TRIPOS>MOLECULE
*****
 19 21 0 0 0
SMALL
GASTEIGER

@<TRIPOS>ATOM
      1 C         140.4373  140.3038  165.2480 C.ar    1  UNL1        0.1296
      2 N         139.3721  139.6176  164.4451 N.ar    1  UNL1       -0.2293
      3 C         138.2245  138.9467  165.1399 C.ar    1  UNL1        0.1018
      4 C         138.1419  138.9620  166.6375 C.ar    1  UNL1        0.0398
      5 C         139.2071  139.6482  167.4404 C.ar    1  UNL1        0.0852
      6 N         139.3921  139.8260  168.9182 N.2     1  UNL1       -0.2455
      7 C         140.6540  140.6068  169.1369 C.2     1  UNL1        0.0777
      8 C         141.3382  141.0797  170.3852 C.2     1  UNL1        0.0185
      9 C         142.6174  141.8573  170.2907 C.2     1  UNL1       -0.0027
     10 C         143.2124  142.1620  168.9479 C.2     1  UNL1       -0.0213
     11 C         142.5282  141.6892  167.6996 C.3     1  UNL1        0.0540
     12 C         141.2490  140.9116  167.7941 C.2     1  UNL1        0.0040
     13 C         140.3548  140.3191  166.7456 C.ar    1  UNL1        0.0468
     14 N         141.5850  140.9747  164.5531 N.pl3   1  UNL1       -0.3181
     15 H         141.7441  141.9376  164.6829 H       1  UNL1        0.1482
     16 C         142.4904  140.1785  163.6607 C.3     1  UNL1        0.0882
     17 C         143.1171  138.9126  164.1654 C.3     1  UNL1        0.0212
     18 C         143.6098  138.1035  166.5846 C.3     1  UNL1        0.0001
     19 C         143.9766  138.9395  165.3944 C.3     1  UNL1        0.0017
@<TRIPOS>BOND
     1    18    19    1
     2    19    17    1
     3    17    16    1
     4    16    14    1
     5    14     1    1
     6     1     2   ar
     7     2     3   ar
     8     3     4   ar
     9     4     5   ar
    10     5     6    2
    11     6     7    1
    12     7     8    2
    13     8     9    1
    14     9    10    2
    15    10    11    1
    16    11    12    1
    17    12    13    2
    18    13     1   ar
    19    13     5   ar
    20    12     7    1
    21    14    15    1
@<TRIPOS>MOLECULE
*****
 19 21 0 0 0
SMALL
GASTEIGER

@<TRIPOS>ATOM
      1 C         140.0488  142.5274  164.9922 C.ar    1  UNL1        0.1296
      2 N         139.7794  143.9415  165.4139 N.ar    1  UNL1       -0.2293
      3 C         138.5893  144.6732  164.8677 C.ar    1  UNL1        0.1018
      4 C         137.6687  143.9909  163.8998 C.ar    1  UNL1        0.0398
      5 C         137.9382  142.5768  163.4781 C.ar    1  UNL1        0.0852
      6 N         137.2129  141.6517  162.5463 N.2     1  UNL1       -0.2455
      7 C         137.9547  140.3483  162.5166 C.2     1  UNL1        0.0777
      8 C         137.7052  139.0681  161.7758 C.2     1  UNL1        0.0185
      9 C         138.6395  137.9074  161.9486 C.2     1  UNL1       -0.0027
     10 C         139.8232  138.0269  162.8620 C.2     1  UNL1       -0.0213
     11 C         140.0727  139.3071  163.6028 C.3     1  UNL1        0.0540
     12 C         139.1385  140.4678  163.4301 C.2     1  UNL1        0.0040
     13 C         139.1282  141.8451  164.0243 C.ar    1  UNL1        0.0468
     14 N         141.2389  141.7957  165.5385 N.pl3   1  UNL1       -0.3181
     15 H         142.1020  141.8382  165.0668 H       1  UNL1        0.1482
     16 C         141.1139  140.9994  166.8035 C.3     1  UNL1        0.0882
     17 C         139.7569  140.6476  167.3372 C.3     1  UNL1        0.0212
     18 C         137.8880  138.9935  166.6151 C.3     1  UNL1        0.0001
     19 C         139.2418  139.2446  167.2104 C.3     1  UNL1        0.0017
@<TRIPOS>BOND
     1    18    19    1
     2    19    17    1
     3    17    16    1
     4    16    14    1
     5    14     1    1
     6     1     2   ar
     7     2     3   ar
     8     3     4   ar
     9     4     5   ar
    10     5     6    2
    11     6     7    1
    12     7     8    2
    13     8     9    1
    14     9    10    2
    15    10    11    1
    16    11    12    1
    17    12    13    2
    18    13     1   ar
    19    13     5   ar
    20    12     7    1
    21    14    15    1
