@<TRIPOS>MOLECULE
*****
 40 44 0 0 0
SMALL
GASTEIGER

@<TRIPOS>ATOM
      1 O         145.8309  141.5283  162.8397 O.2     1  UNL1       -0.2749
      2 C         144.7145  142.4861  163.1336 C.2     1  UNL1        0.2256
      3 N         143.8097  142.9451  162.0288 N.am    1  UNL1       -0.2766
      4 C         142.6933  143.9029  162.3227 C.3     1  UNL1        0.1126
      5 C         141.7885  144.3619  161.2178 C.3     1  UNL1        0.1173
      6 N         142.0001  143.8631  159.8191 N.3     1  UNL1       -0.1520
      7 C         143.1164  142.9054  159.5252 C.3     1  UNL1        0.1173
      8 C         144.0213  142.4463  160.6300 C.3     1  UNL1        0.1126
      9 C         144.5029  142.9849  164.5323 C.3     1  UNL1        0.0811
     10 C         144.8891  143.8974  165.6584 C.3     1  UNL1        0.0142
     11 C         143.7503  142.9362  165.8289 C.3     1  UNL1        0.0314
     12 C         142.6582  142.3530  166.6759 C.ar    1  UNL1       -0.0220
     13 C         142.8648  142.1801  168.1515 C.ar    1  UNL1       -0.0043
     14 C         141.7728  141.5970  168.9984 C.ar    1  UNL1        0.0035
     15 C         140.4741  141.1868  168.3698 C.ar    1  UNL1        0.0714
     16 C         140.2674  141.3598  166.8942 C.ar    1  UNL1        0.0035
     17 C         141.3595  141.9429  166.0473 C.ar    1  UNL1       -0.0043
     18 C         139.3820  140.6037  169.2168 C.3     1  UNL1        0.4186
     19 F         138.2899  140.0206  170.0638 F       1  UNL1       -0.1659
     20 F         139.6610  141.6247  170.2796 F       1  UNL1       -0.1659
     21 F         139.1029  139.5827  168.1540 F       1  UNL1       -0.1659
     22 S         141.0953  144.3221  158.7143 S.O2    1  UNL1        0.0634
     23 O         141.6494  145.7106  158.8373 O.2     1  UNL1       -0.1528
     24 O         140.5412  142.9336  158.5912 O.2     1  UNL1       -0.1528
     25 C         140.1905  144.7810  157.6094 C.ar    1  UNL1        0.1222
     26 C         140.1014  146.2394  157.2699 C.ar    1  UNL1        0.0229
     27 C         139.1966  146.6982  156.1651 C.ar    1  UNL1        0.0370
     28 C         138.3808  145.6988  155.3997 C.ar    1  UNL1        0.0070
     29 C         138.4699  144.2405  155.7393 C.ar    1  UNL1        0.0728
     30 C         139.3747  143.7816  156.8441 C.ar    1  UNL1        0.0238
     31 C         139.1075  148.1566  155.8255 C.ar    1  UNL1        0.1632
     32 N         139.6784  148.8140  154.6041 N.ar    1  UNL1       -0.1289
     33 N         139.3555  150.2773  154.6714 N.ar    1  UNL1       -0.1258
     34 C         138.5851  150.5243  155.9345 C.ar    1  UNL1        0.1992
     35 N         138.4318  149.2136  156.6477 N.ar    1  UNL1       -0.3187
     36 H         137.9690  149.0720  157.5050 H       1  UNL1        0.1690
     37 C         137.6542  143.2411  154.9739 C.3     1  UNL1        0.4186
     38 F         136.8384  142.2416  154.2086 F       1  UNL1       -0.1659
     39 F         136.4444  143.6116  155.7796 F       1  UNL1       -0.1659
     40 F         138.8640  142.8705  154.1683 F       1  UNL1       -0.1659
@<TRIPOS>BOND
     1     1     2    2
     2     9     2    1
     3     9    10    1
     4    10    11    1
     5    11    12    1
     6    12    13   ar
     7    13    14   ar
     8    14    15   ar
     9    15    18    1
    10    18    19    1
    11    18    20    1
    12    18    21    1
    13    15    16   ar
    14    16    17   ar
    15     2     3   am
    16     3     4    1
    17     4     5    1
    18     5     6    1
    19     6    22    1
    20    22    23    2
    21    22    24    2
    22    22    25    1
    23    25    26   ar
    24    26    27   ar
    25    27    31    1
    26    31    32   ar
    27    32    33   ar
    28    33    34   ar
    29    34    35   ar
    30    27    28   ar
    31    28    29   ar
    32    29    37    1
    33    37    38    1
    34    37    39    1
    35    37    40    1
    36    29    30   ar
    37     6     7    1
    38     7     8    1
    39    11     9    1
    40    17    12   ar
    41     8     3    1
    42    30    25   ar
    43    35    31   ar
    44    35    36    1
@<TRIPOS>MOLECULE
*****
 40 44 0 0 0
SMALL
GASTEIGER

@<TRIPOS>ATOM
      1 O         145.8869  141.6802  162.7923 O.2     1  UNL1       -0.2749
      2 C         144.7316  142.5882  163.0941 C.2     1  UNL1        0.2256
      3 N         143.8148  143.0273  161.9912 N.am    1  UNL1       -0.2766
      4 C         142.6595  143.9353  162.2930 C.3     1  UNL1        0.1126
      5 C         141.7426  144.3744  161.1900 C.3     1  UNL1        0.1173
      6 N         141.9810  143.9056  159.7853 N.3     1  UNL1       -0.1520
      7 C         143.1362  142.9977  159.4834 C.3     1  UNL1        0.1173
      8 C         144.0531  142.5585  160.5864 C.3     1  UNL1        0.1126
      9 C         144.4932  143.0570  164.4989 C.3     1  UNL1        0.0811
     10 C         144.8520  143.9513  165.6483 C.3     1  UNL1        0.0142
     11 C         143.7216  142.9745  165.7825 C.3     1  UNL1        0.0314
     12 C         142.6235  142.3629  166.6011 C.ar    1  UNL1       -0.0220
     13 C         141.3280  141.9783  165.9502 C.ar    1  UNL1       -0.0043
     14 C         140.2299  141.3667  166.7688 C.ar    1  UNL1        0.0035
     15 C         140.4273  141.1397  168.2383 C.ar    1  UNL1        0.0714
     16 C         141.7228  141.5243  168.8892 C.ar    1  UNL1        0.0035
     17 C         142.8209  142.1359  168.0706 C.ar    1  UNL1       -0.0043
     18 C         139.3291  140.5281  169.0569 C.3     1  UNL1        0.4186
     19 F         138.2310  139.9165  169.8754 F       1  UNL1       -0.1659
     20 F         139.5597  141.5504  170.1301 F       1  UNL1       -0.1659
     21 F         139.0986  139.5058  167.9838 F       1  UNL1       -0.1659
     22 S         141.0641  144.3447  158.6823 S.O2    1  UNL1        0.0634
     23 O         140.2971  143.0618  158.8091 O.2     1  UNL1       -0.1528
     24 O         141.8311  145.6275  158.5555 O.2     1  UNL1       -0.1528
     25 C         140.1473  144.7839  157.5793 C.ar    1  UNL1        0.1222
     26 C         139.2051  143.8004  156.9510 C.ar    1  UNL1        0.0229
     27 C         138.2882  144.2396  155.8480 C.ar    1  UNL1        0.0370
     28 C         138.3137  145.6623  155.3735 C.ar    1  UNL1        0.0070
     29 C         139.2559  146.6459  156.0018 C.ar    1  UNL1        0.0728
     30 C         140.1727  146.2066  157.1048 C.ar    1  UNL1        0.0238
     31 C         137.3460  143.2561  155.2196 C.ar    1  UNL1        0.1632
     32 N         137.5142  142.6078  153.8774 N.ar    1  UNL1       -0.1289
     33 N         136.3423  141.6992  153.6514 N.ar    1  UNL1       -0.1258
     34 C         135.4498  141.7861  154.8538 C.ar    1  UNL1        0.1992
     35 N         136.0701  142.7483  155.8230 N.ar    1  UNL1       -0.3187
     36 H         135.7041  143.0019  156.7010 H       1  UNL1        0.1690
     37 C         139.2813  148.0686  155.5273 C.3     1  UNL1        0.4186
     38 F         139.3067  149.4913  155.0527 F       1  UNL1       -0.1659
     39 F         139.8692  147.6225  154.2214 F       1  UNL1       -0.1659
     40 F         138.6933  148.5147  156.8332 F       1  UNL1       -0.1659
@<TRIPOS>BOND
     1     1     2    2
     2     9     2    1
     3     9    10    1
     4    10    11    1
     5    11    12    1
     6    12    13   ar
     7    13    14   ar
     8    14    15   ar
     9    15    18    1
    10    18    19    1
    11    18    20    1
    12    18    21    1
    13    15    16   ar
    14    16    17   ar
    15     2     3   am
    16     3     4    1
    17     4     5    1
    18     5     6    1
    19     6    22    1
    20    22    23    2
    21    22    24    2
    22    22    25    1
    23    25    26   ar
    24    26    27   ar
    25    27    31    1
    26    31    32   ar
    27    32    33   ar
    28    33    34   ar
    29    34    35   ar
    30    27    28   ar
    31    28    29   ar
    32    29    37    1
    33    37    38    1
    34    37    39    1
    35    37    40    1
    36    29    30   ar
    37     6     7    1
    38     7     8    1
    39    11     9    1
    40    17    12   ar
    41     8     3    1
    42    30    25   ar
    43    35    31   ar
    44    35    36    1
@<TRIPOS>MOLECULE
*****
 40 44 0 0 0
SMALL
GASTEIGER

@<TRIPOS>ATOM
      1 O         142.8061  144.6603  157.3189 O.2     1  UNL1       -0.2749
      2 C         141.4000  144.5246  157.8237 C.2     1  UNL1        0.2256
      3 N         141.1447  143.9601  159.1897 N.am    1  UNL1       -0.2766
      4 C         139.7387  143.8245  159.6945 C.3     1  UNL1        0.1126
      5 C         139.4834  143.2600  161.0606 C.3     1  UNL1        0.1173
      6 N         140.6341  142.8311  161.9219 N.3     1  UNL1       -0.1520
      7 C         142.0401  142.9667  161.4172 C.3     1  UNL1        0.1173
      8 C         142.2955  143.5312  160.0511 C.3     1  UNL1        0.1126
      9 C         140.2493  144.9535  156.9623 C.3     1  UNL1        0.0811
     10 C         139.0266  144.6118  156.1635 C.3     1  UNL1        0.0142
     11 C         139.4790  146.0380  156.2693 C.3     1  UNL1        0.0314
     12 C         139.2954  147.4877  155.9303 C.ar    1  UNL1       -0.0220
     13 C         138.6197  148.4061  156.9049 C.ar    1  UNL1       -0.0043
     14 C         138.4362  149.8557  156.5659 C.ar    1  UNL1        0.0035
     15 C         138.9283  150.3869  155.2522 C.ar    1  UNL1        0.0714
     16 C         139.6040  149.4684  154.2776 C.ar    1  UNL1        0.0035
     17 C         139.7875  148.0189  154.6167 C.ar    1  UNL1       -0.0043
     18 C         138.7447  151.8365  154.9132 C.3     1  UNL1        0.4186
     19 F         138.5612  153.2861  154.5742 F       1  UNL1       -0.1659
     20 F         138.7162  151.4916  153.4537 F       1  UNL1       -0.1659
     21 F         138.7733  152.1814  156.3727 F       1  UNL1       -0.1659
     22 S         140.3789  142.2666  163.2879 S.O2    1  UNL1        0.0634
     23 O         138.9008  142.3481  163.0455 O.2     1  UNL1       -0.1528
     24 O         141.8569  142.1851  163.5305 O.2     1  UNL1       -0.1528
     25 C         140.1236  141.7021  164.6541 C.ar    1  UNL1        0.1222
     26 C         140.6463  142.4110  165.8682 C.ar    1  UNL1        0.0229
     27 C         140.3910  141.8465  167.2342 C.ar    1  UNL1        0.0370
     28 C         139.6132  140.5730  167.3861 C.ar    1  UNL1        0.0070
     29 C         139.0905  139.8640  166.1720 C.ar    1  UNL1        0.0728
     30 C         139.3458  140.4285  164.8060 C.ar    1  UNL1        0.0238
     31 C         140.9136  142.5555  168.4485 C.ar    1  UNL1        0.1632
     32 N         140.2057  143.6352  169.2120 N.ar    1  UNL1       -0.1289
     33 N         141.0905  144.0562  170.3477 N.ar    1  UNL1       -0.1258
     34 C         142.3453  143.2367  170.2861 C.ar    1  UNL1        0.1992
     35 N         142.2360  142.3092  169.1123 N.ar    1  UNL1       -0.3187
     36 H         142.9132  141.6539  168.8275 H       1  UNL1        0.1690
     37 C         138.3127  138.5905  166.3239 C.3     1  UNL1        0.4186
     38 F         137.5348  137.3170  166.4758 F       1  UNL1       -0.1659
     39 F         138.6863  138.1955  164.9259 F       1  UNL1       -0.1659
     40 F         137.9391  138.9854  167.7219 F       1  UNL1       -0.1659
@<TRIPOS>BOND
     1     1     2    2
     2     9     2    1
     3     9    10    1
     4    10    11    1
     5    11    12    1
     6    12    13   ar
     7    13    14   ar
     8    14    15   ar
     9    15    18    1
    10    18    19    1
    11    18    20    1
    12    18    21    1
    13    15    16   ar
    14    16    17   ar
    15     2     3   am
    16     3     4    1
    17     4     5    1
    18     5     6    1
    19     6    22    1
    20    22    23    2
    21    22    24    2
    22    22    25    1
    23    25    26   ar
    24    26    27   ar
    25    27    31    1
    26    31    32   ar
    27    32    33   ar
    28    33    34   ar
    29    34    35   ar
    30    27    28   ar
    31    28    29   ar
    32    29    37    1
    33    37    38    1
    34    37    39    1
    35    37    40    1
    36    29    30   ar
    37     6     7    1
    38     7     8    1
    39    11     9    1
    40    17    12   ar
    41     8     3    1
    42    30    25   ar
    43    35    31   ar
    44    35    36    1
@<TRIPOS>MOLECULE
*****
 40 44 0 0 0
SMALL
GASTEIGER

@<TRIPOS>ATOM
      1 O         144.1558  139.6802  157.8261 O.2     1  UNL1       -0.2749
      2 C         142.9654  138.9004  158.3004 C.2     1  UNL1        0.2256
      3 N         142.4740  139.0640  159.7081 N.am    1  UNL1       -0.2766
      4 C         141.2836  138.2841  160.1824 C.3     1  UNL1        0.1126
      5 C         140.7922  138.4477  161.5902 C.3     1  UNL1        0.1173
      6 N         141.4912  139.3911  162.5237 N.3     1  UNL1       -0.1520
      7 C         142.6816  140.1709  162.0495 C.3     1  UNL1        0.1173
      8 C         143.1730  140.0073  160.6417 C.3     1  UNL1        0.1126
      9 C         142.2664  137.9570  157.3669 C.3     1  UNL1        0.0811
     10 C         141.1208  137.6487  156.4490 C.3     1  UNL1        0.0142
     11 C         142.2012  136.6314  156.6680 C.3     1  UNL1        0.0314
     12 C         142.7874  135.2788  156.3909 C.ar    1  UNL1       -0.0220
     13 C         142.6863  134.6846  155.0173 C.ar    1  UNL1       -0.0043
     14 C         143.2725  133.3320  154.7403 C.ar    1  UNL1        0.0035
     15 C         143.9598  132.5735  155.8368 C.ar    1  UNL1        0.0714
     16 C         144.0609  133.1677  157.2103 C.ar    1  UNL1        0.0035
     17 C         143.4747  134.5203  157.4874 C.ar    1  UNL1       -0.0043
     18 C         144.5460  131.2209  155.5597 C.3     1  UNL1        0.4186
     19 F         145.1322  129.8683  155.2826 F       1  UNL1       -0.1659
     20 F         143.4456  130.9450  154.5783 F       1  UNL1       -0.1659
     21 F         145.6463  131.4967  156.5410 F       1  UNL1       -0.1659
     22 S         140.9999  139.5547  163.9314 S.O2    1  UNL1        0.0634
     23 O         139.7101  140.1208  163.4155 O.2     1  UNL1       -0.1528
     24 O         142.2896  138.9886  164.4473 O.2     1  UNL1       -0.1528
     25 C         140.5085  139.7182  165.3392 C.ar    1  UNL1        0.1222
     26 C         141.2565  140.5972  166.2973 C.ar    1  UNL1        0.0229
     27 C         140.7652  140.7607  167.7050 C.ar    1  UNL1        0.0370
     28 C         139.5258  140.0453  168.1547 C.ar    1  UNL1        0.0070
     29 C         138.7779  139.1663  167.1967 C.ar    1  UNL1        0.0728
     30 C         139.2692  139.0028  165.7889 C.ar    1  UNL1        0.0238
     31 C         141.5132  141.6397  168.6632 C.ar    1  UNL1        0.1632
     32 N         140.9308  142.7654  169.4654 N.ar    1  UNL1       -0.1289
     33 N         142.0325  143.3687  170.2853 N.ar    1  UNL1       -0.1258
     34 C         143.2958  142.6158  169.9897 C.ar    1  UNL1        0.1992
     35 N         142.9747  141.5473  168.9872 N.ar    1  UNL1       -0.3187
     36 H         143.6116  140.8991  168.6084 H       1  UNL1        0.1690
     37 C         137.5385  138.4509  167.6464 C.3     1  UNL1        0.4186
     38 F         136.2992  137.7355  168.0960 F       1  UNL1       -0.1659
     39 F         137.5482  139.2370  168.9238 F       1  UNL1       -0.1659
     40 F         137.5288  137.6648  166.3689 F       1  UNL1       -0.1659
@<TRIPOS>BOND
     1     1     2    2
     2     9     2    1
     3     9    10    1
     4    10    11    1
     5    11    12    1
     6    12    13   ar
     7    13    14   ar
     8    14    15   ar
     9    15    18    1
    10    18    19    1
    11    18    20    1
    12    18    21    1
    13    15    16   ar
    14    16    17   ar
    15     2     3   am
    16     3     4    1
    17     4     5    1
    18     5     6    1
    19     6    22    1
    20    22    23    2
    21    22    24    2
    22    22    25    1
    23    25    26   ar
    24    26    27   ar
    25    27    31    1
    26    31    32   ar
    27    32    33   ar
    28    33    34   ar
    29    34    35   ar
    30    27    28   ar
    31    28    29   ar
    32    29    37    1
    33    37    38    1
    34    37    39    1
    35    37    40    1
    36    29    30   ar
    37     6     7    1
    38     7     8    1
    39    11     9    1
    40    17    12   ar
    41     8     3    1
    42    30    25   ar
    43    35    31   ar
    44    35    36    1
@<TRIPOS>MOLECULE
*****
 40 44 0 0 0
SMALL
GASTEIGER

@<TRIPOS>ATOM
      1 O         138.8263  137.4565  164.5430 O.2     1  UNL1       -0.2749
      2 C         139.8133  138.3313  163.8284 C.2     1  UNL1        0.2256
      3 N         139.4061  139.0577  162.5808 N.am    1  UNL1       -0.2766
      4 C         140.3932  139.9324  161.8662 C.3     1  UNL1        0.1126
      5 C         139.9860  140.6588  160.6186 C.3     1  UNL1        0.1173
      6 N         138.5918  140.5105  160.0856 N.3     1  UNL1       -0.1520
      7 C         137.6047  139.6357  160.8001 C.3     1  UNL1        0.1173
      8 C         138.0119  138.9093  162.0478 C.3     1  UNL1        0.1126
      9 C         141.2075  138.4796  164.3615 C.3     1  UNL1        0.0811
     10 C         142.6621  138.1167  164.3134 C.3     1  UNL1        0.0142
     11 C         142.1677  139.0996  165.3329 C.3     1  UNL1        0.0314
     12 C         142.4366  140.0251  166.4824 C.ar    1  UNL1       -0.0220
     13 C         142.4365  139.4969  167.8863 C.ar    1  UNL1       -0.0043
     14 C         142.7054  140.4224  169.0357 C.ar    1  UNL1        0.0035
     15 C         142.9744  141.8760  168.7812 C.ar    1  UNL1        0.0714
     16 C         142.9746  142.4041  167.3773 C.ar    1  UNL1        0.0035
     17 C         142.7057  141.4786  166.2279 C.ar    1  UNL1       -0.0043
     18 C         143.2433  142.8014  169.9307 C.3     1  UNL1        0.4186
     19 F         143.5122  143.7268  171.0802 F       1  UNL1       -0.1659
     20 F         144.6325  142.2486  170.0509 F       1  UNL1       -0.1659
     21 F         141.8541  143.3542  169.8106 F       1  UNL1       -0.1659
     22 S         138.1846  141.2368  158.8380 S.O2    1  UNL1        0.0634
     23 O         137.8008  139.9327  158.2039 O.2     1  UNL1       -0.1528
     24 O         138.5683  142.5409  159.4720 O.2     1  UNL1       -0.1528
     25 C         137.7774  141.9633  157.5903 C.ar    1  UNL1        0.1222
     26 C         138.4635  143.2414  157.2089 C.ar    1  UNL1        0.0229
     27 C         138.0563  143.9678  155.9613 C.ar    1  UNL1        0.0370
     28 C         136.9630  143.4160  155.0952 C.ar    1  UNL1        0.0070
     29 C         136.2768  142.1379  155.4766 C.ar    1  UNL1        0.0728
     30 C         136.6841  141.4115  156.7242 C.ar    1  UNL1        0.0238
     31 C         138.7424  145.2460  155.5798 C.ar    1  UNL1        0.1632
     32 N         140.1969  145.5577  155.7730 N.ar    1  UNL1       -0.1289
     33 N         140.4478  146.9412  155.2508 N.ar    1  UNL1       -0.1258
     34 C         139.1485  147.4846  154.7348 C.ar    1  UNL1        0.1992
     35 N         138.0945  146.4369  154.9381 N.ar    1  UNL1       -0.3187
     36 H         137.1442  146.5169  154.6934 H       1  UNL1        0.1690
     37 C         135.1835  141.5861  154.6105 C.3     1  UNL1        0.4186
     38 F         134.0902  141.0343  153.7443 F       1  UNL1       -0.1659
     39 F         135.8371  142.1881  153.4020 F       1  UNL1       -0.1659
     40 F         134.5299  140.9842  155.8190 F       1  UNL1       -0.1659
@<TRIPOS>BOND
     1     1     2    2
     2     9     2    1
     3     9    10    1
     4    10    11    1
     5    11    12    1
     6    12    13   ar
     7    13    14   ar
     8    14    15   ar
     9    15    18    1
    10    18    19    1
    11    18    20    1
    12    18    21    1
    13    15    16   ar
    14    16    17   ar
    15     2     3   am
    16     3     4    1
    17     4     5    1
    18     5     6    1
    19     6    22    1
    20    22    23    2
    21    22    24    2
    22    22    25    1
    23    25    26   ar
    24    26    27   ar
    25    27    31    1
    26    31    32   ar
    27    32    33   ar
    28    33    34   ar
    29    34    35   ar
    30    27    28   ar
    31    28    29   ar
    32    29    37    1
    33    37    38    1
    34    37    39    1
    35    37    40    1
    36    29    30   ar
    37     6     7    1
    38     7     8    1
    39    11     9    1
    40    17    12   ar
    41     8     3    1
    42    30    25   ar
    43    35    31   ar
    44    35    36    1
@<TRIPOS>MOLECULE
*****
 40 44 0 0 0
SMALL
GASTEIGER

@<TRIPOS>ATOM
      1 O         144.3892  143.8974  161.9681 O.2     1  UNL1       -0.2749
      2 C         143.2039  142.9907  162.1205 C.2     1  UNL1        0.2256
      3 N         142.9954  141.8606  161.1565 N.am    1  UNL1       -0.2766
      4 C         141.8102  140.9538  161.3088 C.3     1  UNL1        0.1126
      5 C         141.6017  139.8237  160.3448 C.3     1  UNL1        0.1173
      6 N         142.5783  139.6003  159.2285 N.3     1  UNL1       -0.1520
      7 C         143.7634  140.5070  159.0761 C.3     1  UNL1        0.1173
      8 C         143.9720  141.6371  160.0401 C.3     1  UNL1        0.1126
      9 C         142.2273  143.2141  163.2368 C.3     1  UNL1        0.0811
     10 C         141.5522  144.1379  164.2067 C.3     1  UNL1        0.0142
     11 C         141.2110  142.6772  164.2005 C.3     1  UNL1        0.0314
     12 C         140.4272  141.5239  164.7534 C.ar    1  UNL1       -0.0220
     13 C         138.9506  141.4329  164.5052 C.ar    1  UNL1       -0.0043
     14 C         138.1669  140.2797  165.0581 C.ar    1  UNL1        0.0035
     15 C         138.8597  139.2173  165.8590 C.ar    1  UNL1        0.0714
     16 C         140.3362  139.3083  166.1072 C.ar    1  UNL1        0.0035
     17 C         141.1199  140.4616  165.5543 C.ar    1  UNL1       -0.0043
     18 C         138.0759  138.0640  166.4119 C.3     1  UNL1        0.4186
     19 F         137.2921  136.9108  166.9647 F       1  UNL1       -0.1659
     20 F         138.7665  137.1366  165.4564 F       1  UNL1       -0.1659
     21 F         137.3853  138.9914  167.3674 F       1  UNL1       -0.1659
     22 S         142.3698  138.4702  158.2645 S.O2    1  UNL1        0.0634
     23 O         143.7061  138.7525  157.6444 O.2     1  UNL1       -0.1528
     24 O         141.0334  138.1879  158.8845 O.2     1  UNL1       -0.1528
     25 C         142.1612  137.3400  157.3004 C.ar    1  UNL1        0.1222
     26 C         143.0210  136.1139  157.3848 C.ar    1  UNL1        0.0229
     27 C         142.8124  134.9838  156.4208 C.ar    1  UNL1        0.0370
     28 C         141.7439  135.0798  155.3724 C.ar    1  UNL1        0.0070
     29 C         140.8841  136.3060  155.2880 C.ar    1  UNL1        0.0728
     30 C         141.0927  137.4361  156.2520 C.ar    1  UNL1        0.0238
     31 C         143.6723  133.7576  156.5052 C.ar    1  UNL1        0.1632
     32 N         143.7996  132.6959  155.4533 N.ar    1  UNL1       -0.1289
     33 N         144.7618  131.6599  155.9543 N.ar    1  UNL1       -0.1258
     34 C         145.2292  132.0814  157.3158 C.ar    1  UNL1        0.1992
     35 N         144.5558  133.3778  157.6563 N.ar    1  UNL1       -0.3187
     36 H         144.6732  133.8896  158.4891 H       1  UNL1        0.1690
     37 C         139.8156  136.4020  154.2397 C.3     1  UNL1        0.4186
     38 F         138.7471  136.4981  153.1913 F       1  UNL1       -0.1659
     39 F         140.7941  135.9414  153.2002 F       1  UNL1       -0.1659
     40 F         138.8371  136.8626  155.2791 F       1  UNL1       -0.1659
@<TRIPOS>BOND
     1     1     2    2
     2     9     2    1
     3     9    10    1
     4    10    11    1
     5    11    12    1
     6    12    13   ar
     7    13    14   ar
     8    14    15   ar
     9    15    18    1
    10    18    19    1
    11    18    20    1
    12    18    21    1
    13    15    16   ar
    14    16    17   ar
    15     2     3   am
    16     3     4    1
    17     4     5    1
    18     5     6    1
    19     6    22    1
    20    22    23    2
    21    22    24    2
    22    22    25    1
    23    25    26   ar
    24    26    27   ar
    25    27    31    1
    26    31    32   ar
    27    32    33   ar
    28    33    34   ar
    29    34    35   ar
    30    27    28   ar
    31    28    29   ar
    32    29    37    1
    33    37    38    1
    34    37    39    1
    35    37    40    1
    36    29    30   ar
    37     6     7    1
    38     7     8    1
    39    11     9    1
    40    17    12   ar
    41     8     3    1
    42    30    25   ar
    43    35    31   ar
    44    35    36    1
@<TRIPOS>MOLECULE
*****
 40 44 0 0 0
SMALL
GASTEIGER

@<TRIPOS>ATOM
      1 O         145.5452  140.6591  163.9547 O.2     1  UNL1       -0.2749
      2 C         144.3764  139.7192  163.9269 C.2     1  UNL1        0.2256
      3 N         143.7757  139.3080  162.6155 N.am    1  UNL1       -0.2766
      4 C         142.6069  138.3681  162.5878 C.3     1  UNL1        0.1126
      5 C         142.0062  137.9568  161.2763 C.3     1  UNL1        0.1173
      6 N         142.5741  138.4855  159.9926 N.3     1  UNL1       -0.1520
      7 C         143.7428  139.4253  160.0203 C.3     1  UNL1        0.1173
      8 C         144.3436  139.8366  161.3318 C.3     1  UNL1        0.1126
      9 C         143.8085  139.1906  165.2107 C.3     1  UNL1        0.0811
     10 C         143.5877  138.0521  166.1620 C.3     1  UNL1        0.0142
     11 C         143.0457  139.4135  166.4828 C.3     1  UNL1        0.0314
     12 C         142.2923  140.3282  167.4025 C.ar    1  UNL1       -0.0220
     13 C         140.8844  139.9979  167.8009 C.ar    1  UNL1       -0.0043
     14 C         140.1311  140.9126  168.7206 C.ar    1  UNL1        0.0035
     15 C         140.7856  142.1576  169.2418 C.ar    1  UNL1        0.0714
     16 C         142.1935  142.4879  168.8434 C.ar    1  UNL1        0.0035
     17 C         142.9468  141.5732  167.9237 C.ar    1  UNL1       -0.0043
     18 C         140.0322  143.0723  170.1615 C.3     1  UNL1        0.4186
     19 F         139.2788  143.9870  171.0811 F       1  UNL1       -0.1659
     20 F         141.0717  144.1342  169.9570 F       1  UNL1       -0.1659
     21 F         138.9927  142.0105  170.3659 F       1  UNL1       -0.1659
     22 S         141.9734  138.0742  158.6811 S.O2    1  UNL1        0.0634
     23 O         143.3422  137.7659  158.1507 O.2     1  UNL1       -0.1528
     24 O         140.6046  138.3825  159.2115 O.2     1  UNL1       -0.1528
     25 C         141.3725  137.6630  157.3696 C.ar    1  UNL1        0.1222
     26 C         140.0996  138.2992  156.8954 C.ar    1  UNL1        0.0229
     27 C         139.4989  137.8880  155.5840 C.ar    1  UNL1        0.0370
     28 C         140.1710  136.8405  154.7467 C.ar    1  UNL1        0.0070
     29 C         141.4439  136.2042  155.2209 C.ar    1  UNL1        0.0728
     30 C         142.0447  136.6155  156.5323 C.ar    1  UNL1        0.0238
     31 C         138.2259  138.5242  155.1098 C.ar    1  UNL1        0.1632
     32 N         136.9113  137.8283  154.9159 N.ar    1  UNL1       -0.1289
     33 N         135.9171  138.8421  154.4325 N.ar    1  UNL1       -0.1258
     34 C         136.6172  140.1645  154.3275 C.ar    1  UNL1        0.1992
     35 N         138.0441  139.9680  154.7461 N.ar    1  UNL1       -0.3187
     36 H         138.7393  140.6644  154.7768 H       1  UNL1        0.1690
     37 C         142.1161  135.1568  154.3837 C.3     1  UNL1        0.4186
     38 F         142.7882  134.1093  153.5464 F       1  UNL1       -0.1659
     39 F         140.7751  134.6345  153.9606 F       1  UNL1       -0.1659
     40 F         143.4570  135.6791  154.8067 F       1  UNL1       -0.1659
@<TRIPOS>BOND
     1     1     2    2
     2     9     2    1
     3     9    10    1
     4    10    11    1
     5    11    12    1
     6    12    13   ar
     7    13    14   ar
     8    14    15   ar
     9    15    18    1
    10    18    19    1
    11    18    20    1
    12    18    21    1
    13    15    16   ar
    14    16    17   ar
    15     2     3   am
    16     3     4    1
    17     4     5    1
    18     5     6    1
    19     6    22    1
    20    22    23    2
    21    22    24    2
    22    22    25    1
    23    25    26   ar
    24    26    27   ar
    25    27    31    1
    26    31    32   ar
    27    32    33   ar
    28    33    34   ar
    29    34    35   ar
    30    27    28   ar
    31    28    29   ar
    32    29    37    1
    33    37    38    1
    34    37    39    1
    35    37    40    1
    36    29    30   ar
    37     6     7    1
    38     7     8    1
    39    11     9    1
    40    17    12   ar
    41     8     3    1
    42    30    25   ar
    43    35    31   ar
    44    35    36    1
@<TRIPOS>MOLECULE
*****
 40 44 0 0 0
SMALL
GASTEIGER

@<TRIPOS>ATOM
      1 O         141.0317  136.6003  163.4584 O.2     1  UNL1       -0.2749
      2 C         141.3026  138.0662  163.2914 C.2     1  UNL1        0.2256
      3 N         140.6789  138.8194  162.1541 N.am    1  UNL1       -0.2766
      4 C         140.9499  140.2853  161.9870 C.3     1  UNL1        0.1126
      5 C         140.3261  141.0385  160.8497 C.3     1  UNL1        0.1173
      6 N         139.4313  140.3259  159.8794 N.3     1  UNL1       -0.1520
      7 C         139.1603  138.8601  160.0463 C.3     1  UNL1        0.1173
      8 C         139.7841  138.1068  161.1837 C.3     1  UNL1        0.1126
      9 C         142.1974  138.7788  164.2617 C.3     1  UNL1        0.0811
     10 C         143.5739  139.1499  164.7279 C.3     1  UNL1        0.0142
     11 C         142.3706  139.6419  165.4762 C.3     1  UNL1        0.0314
     12 C         141.7758  140.4242  166.6095 C.ar    1  UNL1       -0.0220
     13 C         141.2715  141.8174  166.3758 C.ar    1  UNL1       -0.0043
     14 C         140.6768  142.5996  167.5091 C.ar    1  UNL1        0.0035
     15 C         140.5864  141.9887  168.8760 C.ar    1  UNL1        0.0714
     16 C         141.0907  140.5955  169.1097 C.ar    1  UNL1        0.0035
     17 C         141.6854  139.8133  167.9765 C.ar    1  UNL1       -0.0043
     18 C         139.9916  142.7710  170.0093 C.3     1  UNL1        0.4186
     19 F         139.3968  143.5533  171.1426 F       1  UNL1       -0.1659
     20 F         140.9070  143.9178  169.6982 F       1  UNL1       -0.1659
     21 F         139.0762  141.6242  170.3205 F       1  UNL1       -0.1659
     22 S         138.8076  141.0791  158.7421 S.O2    1  UNL1        0.0634
     23 O         140.0212  141.9566  158.6575 O.2     1  UNL1       -0.1528
     24 O         137.5939  140.2017  158.8266 O.2     1  UNL1       -0.1528
     25 C         138.1837  141.8324  157.6047 C.ar    1  UNL1        0.1222
     26 C         138.7561  143.1503  157.1744 C.ar    1  UNL1        0.0229
     27 C         138.1323  143.9035  156.0371 C.ar    1  UNL1        0.0370
     28 C         136.9360  143.3386  155.3300 C.ar    1  UNL1        0.0070
     29 C         136.3636  142.0207  155.7603 C.ar    1  UNL1        0.0728
     30 C         136.9874  141.2675  156.8976 C.ar    1  UNL1        0.0238
     31 C         138.7047  145.2216  155.6067 C.ar    1  UNL1        0.1632
     32 N         140.1387  145.6432  155.7323 N.ar    1  UNL1       -0.1289
     33 N         140.2639  147.0316  155.1785 N.ar    1  UNL1       -0.1258
     34 C         138.9072  147.4680  154.7106 C.ar    1  UNL1        0.1992
     35 N         137.9436  146.3493  154.9753 N.ar    1  UNL1       -0.3187
     36 H         136.9806  146.3544  154.7706 H       1  UNL1        0.1690
     37 C         135.1673  141.4558  155.0533 C.3     1  UNL1        0.4186
     38 F         133.9711  140.8910  154.3462 F       1  UNL1       -0.1659
     39 F         134.8550  140.6137  156.2546 F       1  UNL1       -0.1659
     40 F         135.4797  142.2980  153.8519 F       1  UNL1       -0.1659
@<TRIPOS>BOND
     1     1     2    2
     2     9     2    1
     3     9    10    1
     4    10    11    1
     5    11    12    1
     6    12    13   ar
     7    13    14   ar
     8    14    15   ar
     9    15    18    1
    10    18    19    1
    11    18    20    1
    12    18    21    1
    13    15    16   ar
    14    16    17   ar
    15     2     3   am
    16     3     4    1
    17     4     5    1
    18     5     6    1
    19     6    22    1
    20    22    23    2
    21    22    24    2
    22    22    25    1
    23    25    26   ar
    24    26    27   ar
    25    27    31    1
    26    31    32   ar
    27    32    33   ar
    28    33    34   ar
    29    34    35   ar
    30    27    28   ar
    31    28    29   ar
    32    29    37    1
    33    37    38    1
    34    37    39    1
    35    37    40    1
    36    29    30   ar
    37     6     7    1
    38     7     8    1
    39    11     9    1
    40    17    12   ar
    41     8     3    1
    42    30    25   ar
    43    35    31   ar
    44    35    36    1
@<TRIPOS>MOLECULE
*****
 40 44 0 0 0
SMALL
GASTEIGER

@<TRIPOS>ATOM
      1 O         143.3735  144.0216  158.3584 O.2     1  UNL1       -0.2749
      2 C         141.9441  144.0482  158.8127 C.2     1  UNL1        0.2256
      3 N         141.5668  143.4532  160.1369 N.am    1  UNL1       -0.2766
      4 C         140.1375  143.4799  160.5912 C.3     1  UNL1        0.1126
      5 C         139.7602  142.8849  161.9154 C.3     1  UNL1        0.1173
      6 N         140.8122  142.2632  162.7854 N.3     1  UNL1       -0.1520
      7 C         142.2415  142.2365  162.3312 C.3     1  UNL1        0.1173
      8 C         142.6188  142.8316  161.0069 C.3     1  UNL1        0.1126
      9 C         140.8921  144.6699  157.9427 C.3     1  UNL1        0.0811
     10 C         140.3351  145.8681  157.2328 C.3     1  UNL1        0.0142
     11 C         139.6271  144.5485  157.1459 C.3     1  UNL1        0.0314
     12 C         138.4880  143.7165  156.6357 C.ar    1  UNL1       -0.0220
     13 C         138.1180  142.4421  157.3349 C.ar    1  UNL1       -0.0043
     14 C         136.9789  141.6102  156.8247 C.ar    1  UNL1        0.0035
     15 C         136.2099  142.0527  155.6153 C.ar    1  UNL1        0.0714
     16 C         136.5799  143.3270  154.9160 C.ar    1  UNL1        0.0035
     17 C         137.7190  144.1590  155.4262 C.ar    1  UNL1       -0.0043
     18 C         135.0707  141.2207  155.1050 C.3     1  UNL1        0.4186
     19 F         133.9317  140.3887  154.5949 F       1  UNL1       -0.1659
     20 F         135.1282  141.9463  153.7935 F       1  UNL1       -0.1659
     21 F         135.0133  140.4951  156.4166 F       1  UNL1       -0.1659
     22 S         140.4349  141.6682  164.1096 S.O2    1  UNL1        0.0634
     23 O         138.9944  141.9926  163.8450 O.2     1  UNL1       -0.1528
     24 O         141.8752  141.3438  164.3742 O.2     1  UNL1       -0.1528
     25 C         140.0576  141.0731  165.4339 C.ar    1  UNL1        0.1222
     26 C         140.6314  141.6366  166.7001 C.ar    1  UNL1        0.0229
     27 C         140.2541  141.0415  168.0243 C.ar    1  UNL1        0.0370
     28 C         139.3030  139.8830  168.0823 C.ar    1  UNL1        0.0070
     29 C         138.7293  139.3196  166.8161 C.ar    1  UNL1        0.0728
     30 C         139.1065  139.9147  165.4919 C.ar    1  UNL1        0.0238
     31 C         140.8279  141.6050  169.2905 C.ar    1  UNL1        0.1632
     32 N         140.2169  141.5042  170.6567 N.ar    1  UNL1       -0.1289
     33 N         141.1248  142.2051  171.6234 N.ar    1  UNL1       -0.1258
     34 C         142.2969  142.7389  170.8546 C.ar    1  UNL1        0.1992
     35 N         142.1134  142.3680  169.4129 N.ar    1  UNL1       -0.3187
     36 H         142.7287  142.5870  168.6762 H       1  UNL1        0.1690
     37 C         137.7782  138.1611  166.8741 C.3     1  UNL1        0.4186
     38 F         136.8271  137.0026  166.9321 F       1  UNL1       -0.1659
     39 F         138.3757  137.6075  165.6145 F       1  UNL1       -0.1659
     40 F         137.1807  138.7147  168.1337 F       1  UNL1       -0.1659
@<TRIPOS>BOND
     1     1     2    2
     2     9     2    1
     3     9    10    1
     4    10    11    1
     5    11    12    1
     6    12    13   ar
     7    13    14   ar
     8    14    15   ar
     9    15    18    1
    10    18    19    1
    11    18    20    1
    12    18    21    1
    13    15    16   ar
    14    16    17   ar
    15     2     3   am
    16     3     4    1
    17     4     5    1
    18     5     6    1
    19     6    22    1
    20    22    23    2
    21    22    24    2
    22    22    25    1
    23    25    26   ar
    24    26    27   ar
    25    27    31    1
    26    31    32   ar
    27    32    33   ar
    28    33    34   ar
    29    34    35   ar
    30    27    28   ar
    31    28    29   ar
    32    29    37    1
    33    37    38    1
    34    37    39    1
    35    37    40    1
    36    29    30   ar
    37     6     7    1
    38     7     8    1
    39    11     9    1
    40    17    12   ar
    41     8     3    1
    42    30    25   ar
    43    35    31   ar
    44    35    36    1
