@<TRIPOS>MOLECULE
*****
 36 40 0 0 0
SMALL
GASTEIGER

@<TRIPOS>ATOM
      1 N         142.3327  138.0258  162.3960 N.3     1  UNL1       -0.2680
      2 C         142.5038  138.0266  163.8862 C.3     1  UNL1        0.0897
      3 C         141.3065  137.8847  164.7786 C.3     1  UNL1        0.0897
      4 N         139.9382  137.7419  164.1809 N.3     1  UNL1       -0.2680
      5 C         139.7671  137.7410  162.6906 C.3     1  UNL1        0.0897
      6 C         140.9643  137.8830  161.7982 C.3     1  UNL1        0.0897
      7 C         143.5298  138.1677  161.5035 C.3     1  UNL1        0.1064
      8 C         143.9628  139.5270  161.0400 C.3     1  UNL1        0.1483
      9 O         144.2250  139.7747  159.5840 O.3     1  UNL1       -0.3786
     10 H         144.4940  140.6979  159.4564 H       1  UNL1        0.2108
     11 C         142.3837  142.0603  160.7415 C.3     1  UNL1        0.0306
     12 C         143.3441  141.9053  161.8833 C.ar    1  UNL1       -0.0238
     13 C         144.1337  140.6387  162.0326 C.ar    1  UNL1        0.0015
     14 C         145.0941  140.4837  163.1743 C.ar    1  UNL1       -0.0020
     15 C         145.2650  141.5953  164.1668 C.ar    1  UNL1        0.0060
     16 C         144.4754  142.8619  164.0176 C.ar    1  UNL1        0.0748
     17 C         143.5150  143.0169  162.8759 C.ar    1  UNL1        0.0233
     18 C         142.8785  144.3707  162.9861 C.3     1  UNL1        0.2352
     19 O         143.4456  145.0524  164.1959 O.3     1  UNL1       -0.4404
     20 C         144.4325  144.1199  164.8335 C.2     1  UNL1        0.3413
     21 O         145.2355  144.3968  166.0698 O.2     1  UNL1       -0.2449
     22 C         138.7410  137.5999  165.0733 C.3     1  UNL1        0.1064
     23 C         138.1477  138.8107  165.7307 C.3     1  UNL1        0.1483
     24 O         137.3928  138.6703  167.0193 O.3     1  UNL1       -0.3786
     25 H         137.3821  137.7383  167.2878 H       1  UNL1        0.2108
     26 C         138.3092  140.1617  165.0994 C.ar    1  UNL1        0.0015
     27 C         137.5724  140.4919  163.8352 C.ar    1  UNL1       -0.0020
     28 C         137.7340  141.8430  163.2040 C.ar    1  UNL1        0.0060
     29 C         138.6324  142.8639  163.8370 C.ar    1  UNL1        0.0748
     30 C         139.3692  142.5337  165.1012 C.ar    1  UNL1        0.0233
     31 C         139.2076  141.1827  165.7324 C.ar    1  UNL1       -0.0238
     32 C         139.9444  140.8525  166.9965 C.3     1  UNL1        0.0306
     33 C         140.1788  143.7342  165.4927 C.3     1  UNL1        0.2352
     34 O         139.9424  144.8063  164.4705 O.3     1  UNL1       -0.4404
     35 C         138.9867  144.2685  163.4472 C.2     1  UNL1        0.3413
     36 O         138.4751  145.0056  162.2453 O.2     1  UNL1       -0.2449
@<TRIPOS>BOND
     1    11    12    1
     2    12    13   ar
     3    13     8    1
     4     8     9    1
     5     8     7    1
     6     7     1    1
     7     1     2    1
     8     2     3    1
     9     3     4    1
    10     4    22    1
    11    22    23    1
    12    23    24    1
    13    23    26    1
    14    26    27   ar
    15    27    28   ar
    16    28    29   ar
    17    29    30   ar
    18    30    31   ar
    19    31    32    1
    20    30    33    1
    21    33    34    1
    22    34    35    1
    23    35    36    2
    24     4     5    1
    25     5     6    1
    26    13    14   ar
    27    14    15   ar
    28    15    16   ar
    29    16    17   ar
    30    17    18    1
    31    18    19    1
    32    19    20    1
    33    20    21    2
    34    17    12   ar
    35     6     1    1
    36    20    16    1
    37    31    26   ar
    38    35    29    1
    39     9    10    1
    40    24    25    1
@<TRIPOS>MOLECULE
*****
 36 40 0 0 0
SMALL
GASTEIGER

@<TRIPOS>ATOM
      1 N         140.9277  138.1515  164.3299 N.3     1  UNL1       -0.2680
      2 C         142.0553  138.5848  165.2191 C.3     1  UNL1        0.0897
      3 C         143.3079  139.1518  164.6196 C.3     1  UNL1        0.0897
      4 N         143.4330  139.2854  163.1308 N.3     1  UNL1       -0.2680
      5 C         142.3054  138.8520  162.2415 C.3     1  UNL1        0.0897
      6 C         141.0528  138.2851  162.8410 C.3     1  UNL1        0.0897
      7 C         139.6751  137.5845  164.9293 C.3     1  UNL1        0.1064
      8 C         138.6500  138.5002  165.5299 C.3     1  UNL1        0.1483
      9 O         137.7825  138.0195  166.6552 O.3     1  UNL1       -0.3786
     10 H         137.1792  138.7298  166.9245 H       1  UNL1        0.2108
     11 C         139.8052  140.8135  167.0513 C.3     1  UNL1        0.0306
     12 C         139.0701  141.0533  165.7660 C.ar    1  UNL1       -0.0238
     13 C         138.4925  139.8967  165.0052 C.ar    1  UNL1        0.0015
     14 C         137.7574  140.1364  163.7200 C.ar    1  UNL1       -0.0020
     15 C         137.5999  141.5328  163.1952 C.ar    1  UNL1        0.0060
     16 C         138.1775  142.6894  163.9559 C.ar    1  UNL1        0.0748
     17 C         138.9126  142.4497  165.2413 C.ar    1  UNL1        0.0233
     18 C         139.3704  143.7774  165.7681 C.3     1  UNL1        0.2352
     19 O         138.9182  144.8377  164.8083 O.3     1  UNL1       -0.4404
     20 C         138.1810  144.1653  163.6883 C.2     1  UNL1        0.3413
     21 O         137.5568  144.8489  162.5080 O.2     1  UNL1       -0.2449
     22 C         144.6856  139.8523  162.5313 C.3     1  UNL1        0.1064
     23 C         144.9413  141.3294  162.5856 C.3     1  UNL1        0.1483
     24 O         146.2599  141.8445  163.0816 O.3     1  UNL1       -0.3786
     25 H         146.8282  141.0971  163.3248 H       1  UNL1        0.2108
     26 C         143.8784  142.2913  162.1439 C.ar    1  UNL1        0.0015
     27 C         143.2913  142.1805  160.7681 C.ar    1  UNL1       -0.0020
     28 C         142.2285  143.1424  160.3265 C.ar    1  UNL1        0.0060
     29 C         141.7527  144.2151  161.2608 C.ar    1  UNL1        0.0748
     30 C         142.3398  144.3259  162.6366 C.ar    1  UNL1        0.0233
     31 C         143.4026  143.3640  163.0782 C.ar    1  UNL1       -0.0238
     32 C         143.9897  143.4748  164.4541 C.3     1  UNL1        0.0306
     33 C         141.6763  145.4773  163.3323 C.3     1  UNL1        0.2352
     34 O         140.6791  146.0782  162.3863 O.3     1  UNL1       -0.4404
     35 C         140.7263  145.2981  161.1061 C.2     1  UNL1        0.3413
     36 O         139.8935  145.5556  159.8854 O.2     1  UNL1       -0.2449
@<TRIPOS>BOND
     1    11    12    1
     2    12    13   ar
     3    13     8    1
     4     8     9    1
     5     8     7    1
     6     7     1    1
     7     1     2    1
     8     2     3    1
     9     3     4    1
    10     4    22    1
    11    22    23    1
    12    23    24    1
    13    23    26    1
    14    26    27   ar
    15    27    28   ar
    16    28    29   ar
    17    29    30   ar
    18    30    31   ar
    19    31    32    1
    20    30    33    1
    21    33    34    1
    22    34    35    1
    23    35    36    2
    24     4     5    1
    25     5     6    1
    26    13    14   ar
    27    14    15   ar
    28    15    16   ar
    29    16    17   ar
    30    17    18    1
    31    18    19    1
    32    19    20    1
    33    20    21    2
    34    17    12   ar
    35     6     1    1
    36    20    16    1
    37    31    26   ar
    38    35    29    1
    39     9    10    1
    40    24    25    1
@<TRIPOS>MOLECULE
*****
 36 40 0 0 0
SMALL
GASTEIGER

@<TRIPOS>ATOM
      1 N         143.5103  139.1879  163.2053 N.3     1  UNL1       -0.2680
      2 C         143.3108  139.0602  164.6865 C.3     1  UNL1        0.0897
      3 C         142.0299  138.4951  165.2247 C.3     1  UNL1        0.0897
      4 N         140.9484  138.0577  164.2819 N.3     1  UNL1       -0.2680
      5 C         141.1478  138.1854  162.8007 C.3     1  UNL1        0.0897
      6 C         142.4287  138.7505  162.2623 C.3     1  UNL1        0.0897
      7 C         144.7912  139.7530  162.6669 C.3     1  UNL1        0.1064
      8 C         145.0376  141.2318  162.7159 C.3     1  UNL1        0.1483
      9 O         146.3501  141.7573  163.2169 O.3     1  UNL1       -0.3786
     10 H         146.3445  142.7267  163.1830 H       1  UNL1        0.2108
     11 C         144.0739  143.3904  164.5631 C.3     1  UNL1        0.0306
     12 C         143.4895  143.2645  163.1874 C.ar    1  UNL1       -0.0238
     13 C         143.9713  142.1852  162.2637 C.ar    1  UNL1        0.0015
     14 C         143.3870  142.0593  160.8880 C.ar    1  UNL1       -0.0020
     15 C         142.3208  143.0126  160.4359 C.ar    1  UNL1        0.0060
     16 C         141.8390  144.0919  161.3595 C.ar    1  UNL1        0.0748
     17 C         142.4234  144.2178  162.7352 C.ar    1  UNL1        0.0233
     18 C         141.7540  145.3728  163.4192 C.3     1  UNL1        0.2352
     19 O         140.7559  145.9607  162.4662 O.3     1  UNL1       -0.4404
     20 C         140.8084  145.1690  161.1932 C.2     1  UNL1        0.3413
     21 O         139.9765  145.4119  159.9689 O.2     1  UNL1       -0.2449
     22 C         139.6675  137.4925  164.8202 C.3     1  UNL1        0.1064
     23 C         138.6463  138.4026  165.4359 C.3     1  UNL1        0.1483
     24 O         137.7871  137.9120  166.5632 O.3     1  UNL1       -0.3786
     25 H         138.0183  136.9928  166.7696 H       1  UNL1        0.2108
     26 C         138.4844  139.8033  164.9242 C.ar    1  UNL1        0.0015
     27 C         137.7691  140.0508  163.6292 C.ar    1  UNL1       -0.0020
     28 C         137.6073  141.4515  163.1176 C.ar    1  UNL1        0.0060
     29 C         138.1608  142.6048  163.9010 C.ar    1  UNL1        0.0748
     30 C         138.8761  142.3573  165.1960 C.ar    1  UNL1        0.0233
     31 C         139.0379  140.9566  165.7076 C.ar    1  UNL1       -0.0238
     32 C         139.7532  140.7091  167.0026 C.3     1  UNL1        0.0306
     33 C         139.3122  143.6831  165.7453 C.3     1  UNL1        0.2352
     34 O         138.8664  144.7501  164.7898 O.3     1  UNL1       -0.4404
     35 C         138.1548  144.0837  163.6499 C.2     1  UNL1        0.3413
     36 O         137.5444  144.7746  162.4668 O.2     1  UNL1       -0.2449
@<TRIPOS>BOND
     1    11    12    1
     2    12    13   ar
     3    13     8    1
     4     8     9    1
     5     8     7    1
     6     7     1    1
     7     1     2    1
     8     2     3    1
     9     3     4    1
    10     4    22    1
    11    22    23    1
    12    23    24    1
    13    23    26    1
    14    26    27   ar
    15    27    28   ar
    16    28    29   ar
    17    29    30   ar
    18    30    31   ar
    19    31    32    1
    20    30    33    1
    21    33    34    1
    22    34    35    1
    23    35    36    2
    24     4     5    1
    25     5     6    1
    26    13    14   ar
    27    14    15   ar
    28    15    16   ar
    29    16    17   ar
    30    17    18    1
    31    18    19    1
    32    19    20    1
    33    20    21    2
    34    17    12   ar
    35     6     1    1
    36    20    16    1
    37    31    26   ar
    38    35    29    1
    39     9    10    1
    40    24    25    1
@<TRIPOS>MOLECULE
*****
 36 40 0 0 0
SMALL
GASTEIGER

@<TRIPOS>ATOM
      1 N         139.4144  142.9683  161.5361 N.3     1  UNL1       -0.2680
      2 C         138.6013  143.4108  162.7164 C.3     1  UNL1        0.0897
      3 C         138.2066  142.4185  163.7697 C.3     1  UNL1        0.0897
      4 N         138.6250  140.9836  163.6428 N.3     1  UNL1       -0.2680
      5 C         139.4381  140.5411  162.4625 C.3     1  UNL1        0.0897
      6 C         139.8329  141.5333  161.4092 C.3     1  UNL1        0.0897
      7 C         139.8092  143.9605  160.4828 C.3     1  UNL1        0.1064
      8 C         141.1239  144.6759  160.5814 C.3     1  UNL1        0.1483
      9 O         141.5199  145.6661  159.5266 O.3     1  UNL1       -0.3786
     10 H         142.3915  146.0346  159.7399 H       1  UNL1        0.2108
     11 C         143.2281  142.5502  160.3495 C.3     1  UNL1        0.0306
     12 C         143.0948  143.3382  161.6189 C.ar    1  UNL1       -0.0238
     13 C         142.0427  144.4011  161.7349 C.ar    1  UNL1        0.0015
     14 C         141.9093  145.1890  163.0042 C.ar    1  UNL1       -0.0020
     15 C         142.8280  144.9142  164.1576 C.ar    1  UNL1        0.0060
     16 C         143.8801  143.8514  164.0417 C.ar    1  UNL1        0.0748
     17 C         144.0135  143.0634  162.7724 C.ar    1  UNL1        0.0233
     18 C         145.1369  142.0854  162.9498 C.3     1  UNL1        0.2352
     19 O         145.6978  142.2690  164.3288 O.3     1  UNL1       -0.4404
     20 C         144.9210  143.3604  165.0037 C.2     1  UNL1        0.3413
     21 O         145.1458  143.8712  166.3960 O.2     1  UNL1       -0.2449
     22 C         138.2303  139.9914  164.6961 C.3     1  UNL1        0.1064
     23 C         139.2785  139.3660  165.5680 C.3     1  UNL1        0.1483
     24 O         139.9438  138.0904  165.1435 O.3     1  UNL1       -0.3786
     25 H         139.5834  137.8067  164.2888 H       1  UNL1        0.2108
     26 C         139.6614  140.0163  166.8643 C.ar    1  UNL1        0.0015
     27 C         138.8667  139.7392  168.1060 C.ar    1  UNL1       -0.0020
     28 C         139.2497  140.3895  169.4022 C.ar    1  UNL1        0.0060
     29 C         140.4274  141.3169  169.4569 C.ar    1  UNL1        0.0748
     30 C         141.2221  141.5940  168.2153 C.ar    1  UNL1        0.0233
     31 C         140.8391  140.9437  166.9190 C.ar    1  UNL1       -0.0238
     32 C         141.6339  141.2207  165.6774 C.3     1  UNL1        0.0306
     33 C         142.3246  142.5459  168.5735 C.3     1  UNL1        0.2352
     34 O         142.2113  142.8571  170.0365 O.3     1  UNL1       -0.4404
     35 C         141.0388  142.0976  170.5825 C.2     1  UNL1        0.3413
     36 O         140.5613  142.1155  172.0044 O.2     1  UNL1       -0.2449
@<TRIPOS>BOND
     1    11    12    1
     2    12    13   ar
     3    13     8    1
     4     8     9    1
     5     8     7    1
     6     7     1    1
     7     1     2    1
     8     2     3    1
     9     3     4    1
    10     4    22    1
    11    22    23    1
    12    23    24    1
    13    23    26    1
    14    26    27   ar
    15    27    28   ar
    16    28    29   ar
    17    29    30   ar
    18    30    31   ar
    19    31    32    1
    20    30    33    1
    21    33    34    1
    22    34    35    1
    23    35    36    2
    24     4     5    1
    25     5     6    1
    26    13    14   ar
    27    14    15   ar
    28    15    16   ar
    29    16    17   ar
    30    17    18    1
    31    18    19    1
    32    19    20    1
    33    20    21    2
    34    17    12   ar
    35     6     1    1
    36    20    16    1
    37    31    26   ar
    38    35    29    1
    39     9    10    1
    40    24    25    1
@<TRIPOS>MOLECULE
*****
 36 40 0 0 0
SMALL
GASTEIGER

@<TRIPOS>ATOM
      1 N         139.4056  138.4058  162.1554 N.3     1  UNL1       -0.2680
      2 C         140.7901  138.9455  161.9508 C.3     1  UNL1        0.0897
      3 C         141.8110  138.8249  163.0431 C.3     1  UNL1        0.0897
      4 N         141.4474  138.1647  164.3400 N.3     1  UNL1       -0.2680
      5 C         140.0629  137.6249  164.5446 C.3     1  UNL1        0.0897
      6 C         139.0420  137.7455  163.4523 C.3     1  UNL1        0.0897
      7 C         138.3847  138.5263  161.0631 C.3     1  UNL1        0.1064
      8 C         137.4727  139.7163  161.0169 C.3     1  UNL1        0.1483
      9 O         136.2491  139.6903  160.1497 O.3     1  UNL1       -0.3786
     10 H         135.7740  140.5316  160.2355 H       1  UNL1        0.2108
     11 C         138.9594  142.0146  159.7891 C.3     1  UNL1        0.0306
     12 C         138.5277  142.0816  161.2241 C.ar    1  UNL1       -0.0238
     13 C         137.7843  140.9324  161.8380 C.ar    1  UNL1        0.0015
     14 C         137.3526  140.9993  163.2729 C.ar    1  UNL1       -0.0020
     15 C         137.6642  142.2153  164.0940 C.ar    1  UNL1        0.0060
     16 C         138.4075  143.3644  163.4801 C.ar    1  UNL1        0.0748
     17 C         138.8393  143.2976  162.0451 C.ar    1  UNL1        0.0233
     18 C         139.5520  144.5756  161.7154 C.3     1  UNL1        0.2352
     19 O         139.5607  145.4323  162.9467 O.3     1  UNL1       -0.4404
     20 C         138.8534  144.6838  164.0373 C.2     1  UNL1        0.3413
     21 O         138.6310  145.1694  165.4390 O.2     1  UNL1       -0.2449
     22 C         142.4684  138.0441  165.4323 C.3     1  UNL1        0.1064
     23 C         143.1190  139.2753  165.9901 C.3     1  UNL1        0.1483
     24 O         144.3695  139.8135  165.3604 O.3     1  UNL1       -0.3786
     25 H         144.6212  139.2522  164.6104 H       1  UNL1        0.2108
     26 C         142.5190  139.9681  167.1775 C.ar    1  UNL1        0.0015
     27 C         142.7085  139.3995  168.5525 C.ar    1  UNL1       -0.0020
     28 C         142.1085  140.0924  169.7399 C.ar    1  UNL1        0.0060
     29 C         141.3191  141.3539  169.5522 C.ar    1  UNL1        0.0748
     30 C         141.1296  141.9226  168.1772 C.ar    1  UNL1        0.0233
     31 C         141.7296  141.2297  166.9898 C.ar    1  UNL1       -0.0238
     32 C         141.5401  141.7983  165.6148 C.3     1  UNL1        0.0306
     33 C         140.3081  143.1714  168.3013 C.3     1  UNL1        0.2352
     34 O         139.9898  143.3746  169.7531 O.3     1  UNL1       -0.4404
     35 C         140.6146  142.2514  170.5262 C.2     1  UNL1        0.3413
     36 O         140.5470  142.0592  172.0122 O.2     1  UNL1       -0.2449
@<TRIPOS>BOND
     1    11    12    1
     2    12    13   ar
     3    13     8    1
     4     8     9    1
     5     8     7    1
     6     7     1    1
     7     1     2    1
     8     2     3    1
     9     3     4    1
    10     4    22    1
    11    22    23    1
    12    23    24    1
    13    23    26    1
    14    26    27   ar
    15    27    28   ar
    16    28    29   ar
    17    29    30   ar
    18    30    31   ar
    19    31    32    1
    20    30    33    1
    21    33    34    1
    22    34    35    1
    23    35    36    2
    24     4     5    1
    25     5     6    1
    26    13    14   ar
    27    14    15   ar
    28    15    16   ar
    29    16    17   ar
    30    17    18    1
    31    18    19    1
    32    19    20    1
    33    20    21    2
    34    17    12   ar
    35     6     1    1
    36    20    16    1
    37    31    26   ar
    38    35    29    1
    39     9    10    1
    40    24    25    1
@<TRIPOS>MOLECULE
*****
 36 40 0 0 0
SMALL
GASTEIGER

@<TRIPOS>ATOM
      1 N         139.4930  142.9467  160.5581 N.3     1  UNL1       -0.2680
      2 C         140.0709  141.6348  160.1164 C.3     1  UNL1        0.0897
      3 C         139.6487  140.3639  160.7918 C.3     1  UNL1        0.0897
      4 N         138.6485  140.4047  161.9089 N.3     1  UNL1       -0.2680
      5 C         138.0705  141.7165  162.3506 C.3     1  UNL1        0.0897
      6 C         138.4927  142.9875  161.6752 C.3     1  UNL1        0.0897
      7 C         139.9152  144.2177  159.8826 C.3     1  UNL1        0.1064
      8 C         141.2453  144.8319  160.2045 C.3     1  UNL1        0.1483
      9 O         141.8460  145.8477  159.2786 O.3     1  UNL1       -0.3786
     10 H         142.7005  146.1416  159.6315 H       1  UNL1        0.2108
     11 C         143.5724  142.9457  160.0404 C.3     1  UNL1        0.0306
     12 C         143.1383  143.4872  161.3702 C.ar    1  UNL1       -0.0238
     13 C         141.9747  144.4304  161.4523 C.ar    1  UNL1        0.0015
     14 C         141.5405  144.9719  162.7819 C.ar    1  UNL1       -0.0020
     15 C         142.2698  144.5704  164.0297 C.ar    1  UNL1        0.0060
     16 C         143.4334  143.6273  163.9477 C.ar    1  UNL1        0.0748
     17 C         143.8676  143.0857  162.6179 C.ar    1  UNL1        0.0233
     18 C         145.0411  142.1800  162.8471 C.3     1  UNL1        0.2352
     19 O         145.3322  142.1619  164.3184 O.3     1  UNL1       -0.4404
     20 C         144.3386  143.0563  164.9987 C.2     1  UNL1        0.3413
     21 O         144.2634  143.3315  166.4713 O.2     1  UNL1       -0.2449
     22 C         138.2262  139.1337  162.5843 C.3     1  UNL1        0.1064
     23 C         139.1353  138.4753  163.5795 C.3     1  UNL1        0.1483
     24 O         140.0030  137.3269  163.1574 O.3     1  UNL1       -0.3786
     25 H         139.8556  137.1386  162.2173 H       1  UNL1        0.2108
     26 C         139.1765  138.9653  164.9965 C.ar    1  UNL1        0.0015
     27 C         138.1564  138.4855  165.9861 C.ar    1  UNL1       -0.0020
     28 C         138.1977  138.9755  167.4031 C.ar    1  UNL1        0.0060
     29 C         139.2591  139.9454  167.8307 C.ar    1  UNL1        0.0748
     30 C         140.2792  140.4252  166.8412 C.ar    1  UNL1        0.0233
     31 C         140.2379  139.9351  165.4241 C.ar    1  UNL1       -0.0238
     32 C         141.2580  140.4149  164.4346 C.3     1  UNL1        0.0306
     33 C         141.1999  141.3751  167.5483 C.3     1  UNL1        0.2352
     34 O         140.7487  141.4823  168.9749 O.3     1  UNL1       -0.4404
     35 C         139.5493  140.5988  169.1494 C.2     1  UNL1        0.3413
     36 O         138.7758  140.4029  170.4196 O.2     1  UNL1       -0.2449
@<TRIPOS>BOND
     1    11    12    1
     2    12    13   ar
     3    13     8    1
     4     8     9    1
     5     8     7    1
     6     7     1    1
     7     1     2    1
     8     2     3    1
     9     3     4    1
    10     4    22    1
    11    22    23    1
    12    23    24    1
    13    23    26    1
    14    26    27   ar
    15    27    28   ar
    16    28    29   ar
    17    29    30   ar
    18    30    31   ar
    19    31    32    1
    20    30    33    1
    21    33    34    1
    22    34    35    1
    23    35    36    2
    24     4     5    1
    25     5     6    1
    26    13    14   ar
    27    14    15   ar
    28    15    16   ar
    29    16    17   ar
    30    17    18    1
    31    18    19    1
    32    19    20    1
    33    20    21    2
    34    17    12   ar
    35     6     1    1
    36    20    16    1
    37    31    26   ar
    38    35    29    1
    39     9    10    1
    40    24    25    1
@<TRIPOS>MOLECULE
*****
 36 40 0 0 0
SMALL
GASTEIGER

@<TRIPOS>ATOM
      1 N         140.9377  138.1505  164.0372 N.3     1  UNL1       -0.2680
      2 C         140.8159  138.2609  162.5463 C.3     1  UNL1        0.0897
      3 C         141.9143  138.9001  161.7494 C.3     1  UNL1        0.0897
      4 N         143.1344  139.4288  162.4434 N.3     1  UNL1       -0.2680
      5 C         143.2562  139.3184  163.9344 C.3     1  UNL1        0.0897
      6 C         142.1579  138.6792  164.7313 C.3     1  UNL1        0.0897
      7 C         139.8394  137.5113  164.8342 C.3     1  UNL1        0.1064
      8 C         138.7284  138.3524  165.3892 C.3     1  UNL1        0.1483
      9 O         137.7982  137.7821  166.4186 O.3     1  UNL1       -0.3786
     10 H         137.1430  138.4521  166.6688 H       1  UNL1        0.2108
     11 C         140.0443  140.6102  166.8627 C.3     1  UNL1        0.0306
     12 C         139.2055  140.8929  165.6517 C.ar    1  UNL1       -0.0238
     13 C         138.5475  139.7640  164.9149 C.ar    1  UNL1        0.0015
     14 C         137.7087  140.0466  163.7040 C.ar    1  UNL1       -0.0020
     15 C         137.5278  141.4581  163.2297 C.ar    1  UNL1        0.0060
     16 C         138.1857  142.5870  163.9664 C.ar    1  UNL1        0.0748
     17 C         139.0246  142.3044  165.1773 C.ar    1  UNL1        0.0233
     18 C         139.5458  143.6119  165.6957 C.3     1  UNL1        0.2352
     19 O         139.0290  144.7026  164.8050 O.3     1  UNL1       -0.4404
     20 C         138.1885  144.0692  163.7362 C.2     1  UNL1        0.3413
     21 O         137.4758  144.7913  162.6313 O.2     1  UNL1       -0.2449
     22 C         144.2327  140.0680  161.6465 C.3     1  UNL1        0.1064
     23 C         144.5291  141.5288  161.8147 C.3     1  UNL1        0.1483
     24 O         145.8831  141.9699  162.2860 O.3     1  UNL1       -0.3786
     25 H         146.4429  141.1918  162.4351 H       1  UNL1        0.2108
     26 C         143.4715  142.5484  161.5117 C.ar    1  UNL1        0.0015
     27 C         142.6208  143.0983  162.6180 C.ar    1  UNL1       -0.0020
     28 C         141.5632  144.1179  162.3149 C.ar    1  UNL1        0.0060
     29 C         141.3564  144.5876  160.9054 C.ar    1  UNL1        0.0748
     30 C         142.2071  144.0378  159.7991 C.ar    1  UNL1        0.0233
     31 C         143.2647  143.0182  160.1022 C.ar    1  UNL1       -0.0238
     32 C         144.1154  142.4683  158.9959 C.3     1  UNL1        0.0306
     33 C         141.7756  144.6857  158.5169 C.3     1  UNL1        0.2352
     34 O         140.6582  145.6360  158.8308 O.3     1  UNL1       -0.4404
     35 C         140.3991  145.5754  160.3070 C.2     1  UNL1        0.3413
     36 O         139.3645  146.3641  161.0536 O.2     1  UNL1       -0.2449
@<TRIPOS>BOND
     1    11    12    1
     2    12    13   ar
     3    13     8    1
     4     8     9    1
     5     8     7    1
     6     7     1    1
     7     1     2    1
     8     2     3    1
     9     3     4    1
    10     4    22    1
    11    22    23    1
    12    23    24    1
    13    23    26    1
    14    26    27   ar
    15    27    28   ar
    16    28    29   ar
    17    29    30   ar
    18    30    31   ar
    19    31    32    1
    20    30    33    1
    21    33    34    1
    22    34    35    1
    23    35    36    2
    24     4     5    1
    25     5     6    1
    26    13    14   ar
    27    14    15   ar
    28    15    16   ar
    29    16    17   ar
    30    17    18    1
    31    18    19    1
    32    19    20    1
    33    20    21    2
    34    17    12   ar
    35     6     1    1
    36    20    16    1
    37    31    26   ar
    38    35    29    1
    39     9    10    1
    40    24    25    1
@<TRIPOS>MOLECULE
*****
 36 40 0 0 0
SMALL
GASTEIGER

@<TRIPOS>ATOM
      1 N         137.9816  140.6039  162.2040 N.3     1  UNL1       -0.2680
      2 C         137.9396  141.1756  163.5902 C.3     1  UNL1        0.0897
      3 C         138.1367  142.6476  163.8005 C.3     1  UNL1        0.0897
      4 N         138.3758  143.5479  162.6248 N.3     1  UNL1       -0.2680
      5 C         138.4178  142.9761  161.2386 C.3     1  UNL1        0.0897
      6 C         138.2207  141.5041  161.0282 C.3     1  UNL1        0.0897
      7 C         137.7844  139.1318  161.9936 C.3     1  UNL1        0.1064
      8 C         138.9725  138.2348  161.8099 C.3     1  UNL1        0.1483
      9 O         139.0422  137.3154  160.6268 O.3     1  UNL1       -0.3786
     10 H         139.8691  136.8093  160.6589 H       1  UNL1        0.2108
     11 C         141.6765  139.2608  161.0126 C.3     1  UNL1        0.0306
     12 C         141.4429  138.7701  162.4107 C.ar    1  UNL1       -0.0238
     13 C         140.0908  138.2571  162.8094 C.ar    1  UNL1        0.0015
     14 C         139.8572  137.7664  164.2074 C.ar    1  UNL1       -0.0020
     15 C         140.9755  137.7887  165.2068 C.ar    1  UNL1        0.0060
     16 C         142.3275  138.3017  164.8082 C.ar    1  UNL1        0.0748
     17 C         142.5612  138.7924  163.4101 C.ar    1  UNL1        0.0233
     18 C         143.9898  139.2380  163.3080 C.3     1  UNL1        0.2352
     19 O         144.6390  139.0226  164.6429 O.3     1  UNL1       -0.4404
     20 C         143.6117  138.4440  165.5701 C.2     1  UNL1        0.3413
     21 O         143.8302  138.0728  167.0070 O.2     1  UNL1       -0.2449
     22 C         138.5730  145.0199  162.8352 C.3     1  UNL1        0.1064
     23 C         139.8963  145.6520  162.5202 C.3     1  UNL1        0.1483
     24 O         139.9520  147.0632  162.0146 O.3     1  UNL1       -0.3786
     25 H         139.0519  147.4190  161.9494 H       1  UNL1        0.2108
     26 C         141.1639  144.8731  162.7108 C.ar    1  UNL1        0.0015
     27 C         141.6970  144.6344  164.0924 C.ar    1  UNL1       -0.0020
     28 C         142.9646  143.8554  164.2829 C.ar    1  UNL1        0.0060
     29 C         143.6992  143.3151  163.0919 C.ar    1  UNL1        0.0748
     30 C         143.1661  143.5538  161.7103 C.ar    1  UNL1        0.0233
     31 C         141.8984  144.3328  161.5198 C.ar    1  UNL1       -0.0238
     32 C         141.3653  144.5715  160.1382 C.3     1  UNL1        0.0306
     33 C         144.1007  142.9032  160.7340 C.3     1  UNL1        0.2352
     34 O         145.2115  142.2624  161.5123 O.3     1  UNL1       -0.4404
     35 C         144.9633  142.5169  162.9695 C.2     1  UNL1        0.3413
     36 O         145.8275  142.0546  164.1050 O.2     1  UNL1       -0.2449
@<TRIPOS>BOND
     1    11    12    1
     2    12    13   ar
     3    13     8    1
     4     8     9    1
     5     8     7    1
     6     7     1    1
     7     1     2    1
     8     2     3    1
     9     3     4    1
    10     4    22    1
    11    22    23    1
    12    23    24    1
    13    23    26    1
    14    26    27   ar
    15    27    28   ar
    16    28    29   ar
    17    29    30   ar
    18    30    31   ar
    19    31    32    1
    20    30    33    1
    21    33    34    1
    22    34    35    1
    23    35    36    2
    24     4     5    1
    25     5     6    1
    26    13    14   ar
    27    14    15   ar
    28    15    16   ar
    29    16    17   ar
    30    17    18    1
    31    18    19    1
    32    19    20    1
    33    20    21    2
    34    17    12   ar
    35     6     1    1
    36    20    16    1
    37    31    26   ar
    38    35    29    1
    39     9    10    1
    40    24    25    1
@<TRIPOS>MOLECULE
*****
 36 40 0 0 0
SMALL
GASTEIGER

@<TRIPOS>ATOM
      1 N         142.6937  138.8555  162.4353 N.3     1  UNL1       -0.2680
      2 C         141.7159  137.9879  163.1709 C.3     1  UNL1        0.0897
      3 C         140.3077  137.8550  162.6715 C.3     1  UNL1        0.0897
      4 N         139.8774  138.5897  161.4366 N.3     1  UNL1       -0.2680
      5 C         140.8552  139.4572  160.7009 C.3     1  UNL1        0.0897
      6 C         142.2634  139.5902  161.2002 C.3     1  UNL1        0.0897
      7 C         144.1019  138.9884  162.9346 C.3     1  UNL1        0.1064
      8 C         144.4114  139.9239  164.0656 C.3     1  UNL1        0.1483
      9 O         145.5982  140.8373  163.9800 O.3     1  UNL1       -0.3786
     10 H         145.6542  141.3712  164.7879 H       1  UNL1        0.2108
     11 C         142.2677  142.0058  164.3314 C.3     1  UNL1        0.0306
     12 C         142.4622  140.9870  165.4151 C.ar    1  UNL1       -0.0238
     13 C         143.5341  139.9460  165.2822 C.ar    1  UNL1        0.0015
     14 C         143.7286  138.9272  166.3657 C.ar    1  UNL1       -0.0020
     15 C         142.8514  138.9493  167.5822 C.ar    1  UNL1        0.0060
     16 C         141.7796  139.9902  167.7151 C.ar    1  UNL1        0.0748
     17 C         141.5850  141.0090  166.6316 C.ar    1  UNL1        0.0233
     18 C         140.4547  141.9076  167.0377 C.3     1  UNL1        0.2352
     19 O         139.9506  141.4440  168.3723 O.3     1  UNL1       -0.4404
     20 C         140.7695  140.2590  168.7910 C.2     1  UNL1        0.3413
     21 O         140.6067  139.4797  170.0623 O.2     1  UNL1       -0.2449
     22 C         138.4692  138.4567  160.9372 C.3     1  UNL1        0.1064
     23 C         137.5328  139.6261  161.0134 C.3     1  UNL1        0.1483
     24 O         136.2710  139.6305  160.2023 O.3     1  UNL1       -0.3786
     25 H         136.2142  138.8098  159.6883 H       1  UNL1        0.2108
     26 C         137.8581  140.7909  161.9007 C.ar    1  UNL1        0.0015
     27 C         137.6455  140.6878  163.3820 C.ar    1  UNL1       -0.0020
     28 C         137.9709  141.8527  164.2692 C.ar    1  UNL1        0.0060
     29 C         138.5089  143.1206  163.6751 C.ar    1  UNL1        0.0748
     30 C         138.7216  143.2237  162.1938 C.ar    1  UNL1        0.0233
     31 C         138.3962  142.0588  161.3066 C.ar    1  UNL1       -0.0238
     32 C         138.6088  142.1618  159.8254 C.3     1  UNL1        0.0306
     33 C         139.2614  144.5913  161.8971 C.3     1  UNL1        0.2352
     34 O         139.3823  145.3336  163.1951 O.3     1  UNL1       -0.4404
     35 C         138.9173  144.4247  164.2939 C.2     1  UNL1        0.3413
     36 O         138.8691  144.7607  165.7550 O.2     1  UNL1       -0.2449
@<TRIPOS>BOND
     1    11    12    1
     2    12    13   ar
     3    13     8    1
     4     8     9    1
     5     8     7    1
     6     7     1    1
     7     1     2    1
     8     2     3    1
     9     3     4    1
    10     4    22    1
    11    22    23    1
    12    23    24    1
    13    23    26    1
    14    26    27   ar
    15    27    28   ar
    16    28    29   ar
    17    29    30   ar
    18    30    31   ar
    19    31    32    1
    20    30    33    1
    21    33    34    1
    22    34    35    1
    23    35    36    2
    24     4     5    1
    25     5     6    1
    26    13    14   ar
    27    14    15   ar
    28    15    16   ar
    29    16    17   ar
    30    17    18    1
    31    18    19    1
    32    19    20    1
    33    20    21    2
    34    17    12   ar
    35     6     1    1
    36    20    16    1
    37    31    26   ar
    38    35    29    1
    39     9    10    1
    40    24    25    1
