@<TRIPOS>MOLECULE
*****
 28 32 0 0 0
SMALL
GASTEIGER

@<TRIPOS>ATOM
      1 C         141.8398  142.0941  167.1722 C.ar    1  UNL1        0.0856
      2 C         140.8999  142.3832  166.0396 C.ar    1  UNL1        0.0273
      3 C         141.4301  142.9217  164.7439 C.ar    1  UNL1        0.0528
      4 S         140.7508  143.2991  163.4609 S.2     1  UNL1       -0.0514
      5 C         141.8011  143.7819  162.5049 C.ar    1  UNL1        0.1631
      6 N         143.1294  143.7028  163.1971 N.ar    1  UNL1       -0.2225
      7 C         142.9002  143.1712  164.5809 C.ar    1  UNL1        0.1084
      8 C         143.8401  142.8821  165.7135 C.ar    1  UNL1        0.1184
      9 N         143.3099  142.3435  167.0092 N.ar    1  UNL1       -0.2421
     10 F         140.1494  143.8318  168.9393 F       1  UNL1       -0.1832
     11 C         140.4644  142.4243  169.3515 C.ar    1  UNL1        0.2237
     12 N         139.9343  141.8858  170.6472 N.ar    1  UNL1       -0.2164
     13 C         140.2494  140.4783  171.0594 C.ar    1  UNL1        0.1013
     14 C         141.0946  139.6094  170.1759 C.ar    1  UNL1        0.0209
     15 C         141.6248  140.1481  168.8801 C.ar    1  UNL1        0.0069
     16 C         141.3097  141.5554  168.4680 C.ar    1  UNL1        0.0636
     17 N         141.5645  144.2597  161.1029 N.pl3   1  UNL1       -0.2881
     18 C         140.5050  145.2856  160.8289 C.3     1  UNL1        0.0940
     19 C         140.2685  145.7635  159.4269 C.3     1  UNL1        0.0375
     20 C         141.0914  145.2155  158.2988 C.3     1  UNL1        0.0609
     21 C         142.1508  144.1897  158.5728 C.3     1  UNL1        0.0375
     22 C         142.3874  143.7118  159.9748 C.3     1  UNL1        0.0940
     23 N         140.8548  145.6934  156.8968 N.3     1  UNL1       -0.2738
     24 C         139.7519  146.6696  156.6133 C.3     1  UNL1        0.0720
     25 C         139.5153  147.1475  155.2112 C.3     1  UNL1        0.0174
     26 C         140.3816  146.6491  154.0928 C.3     1  UNL1        0.0029
     27 C         141.4845  145.6729  154.3763 C.3     1  UNL1        0.0174
     28 C         141.7211  145.1950  155.7783 C.3     1  UNL1        0.0720
@<TRIPOS>BOND
     1    10    11    1
     2    11    12   ar
     3    12    13   ar
     4    13    14   ar
     5    14    15   ar
     6    15    16   ar
     7    16     1    1
     8     1     2   ar
     9     2     3   ar
    10     3     4   ar
    11     4     5   ar
    12     5    17    1
    13    17    18    1
    14    18    19    1
    15    19    20    1
    16    20    23    1
    17    23    24    1
    18    24    25    1
    19    25    26    1
    20    26    27    1
    21    27    28    1
    22    20    21    1
    23    21    22    1
    24     5     6   ar
    25     6     7   ar
    26     7     8   ar
    27     8     9   ar
    28    16    11   ar
    29     9     1   ar
    30     7     3   ar
    31    22    17    1
    32    28    23    1
@<TRIPOS>MOLECULE
*****
 28 32 0 0 0
SMALL
GASTEIGER

@<TRIPOS>ATOM
      1 C         139.9614  140.1793  167.5970 C.ar    1  UNL1        0.0856
      2 C         140.3423  140.9776  166.3856 C.ar    1  UNL1        0.0273
      3 C         139.6021  140.7824  165.0957 C.ar    1  UNL1        0.0528
      4 S         139.7512  141.4206  163.7464 S.2     1  UNL1       -0.0514
      5 C         138.7223  140.8216  162.8340 C.ar    1  UNL1        0.1631
      6 N         137.9373  139.8131  163.6194 N.ar    1  UNL1       -0.2225
      7 C         138.4810  139.7890  165.0172 C.ar    1  UNL1        0.1084
      8 C         138.1001  138.9906  166.2286 C.ar    1  UNL1        0.1184
      9 N         138.8403  139.1858  167.5185 N.ar    1  UNL1       -0.2421
     10 F         138.4757  141.0071  170.0684 F       1  UNL1       -0.1832
     11 C         139.9587  140.7884  170.1227 C.ar    1  UNL1        0.2237
     12 N         140.6988  140.9836  171.4127 N.ar    1  UNL1       -0.2164
     13 C         142.1819  140.7648  171.4671 C.ar    1  UNL1        0.1013
     14 C         142.9247  140.3510  170.2314 C.ar    1  UNL1        0.0209
     15 C         142.1845  140.1558  168.9414 C.ar    1  UNL1        0.0069
     16 C         140.7016  140.3745  168.8871 C.ar    1  UNL1        0.0636
     17 N         138.5149  141.1698  161.3898 N.pl3   1  UNL1       -0.2881
     18 C         138.8857  142.5332  160.8863 C.3     1  UNL1        0.0940
     19 C         138.6783  142.8814  159.4421 C.3     1  UNL1        0.0375
     20 C         138.1000  141.8662  158.5014 C.3     1  UNL1        0.0609
     21 C         137.7291  140.5028  159.0049 C.3     1  UNL1        0.0375
     22 C         137.9366  140.1546  160.4491 C.3     1  UNL1        0.0940
     23 N         137.8925  142.2144  157.0572 N.3     1  UNL1       -0.2738
     24 C         138.7299  143.2804  156.4149 C.3     1  UNL1        0.0720
     25 C         138.5225  143.6286  154.9707 C.3     1  UNL1        0.0174
     26 C         137.4776  142.9109  154.1688 C.3     1  UNL1        0.0029
     27 C         136.6403  141.8449  154.8110 C.3     1  UNL1        0.0174
     28 C         136.8477  141.4967  156.2552 C.3     1  UNL1        0.0720
@<TRIPOS>BOND
     1    10    11    1
     2    11    12   ar
     3    12    13   ar
     4    13    14   ar
     5    14    15   ar
     6    15    16   ar
     7    16     1    1
     8     1     2   ar
     9     2     3   ar
    10     3     4   ar
    11     4     5   ar
    12     5    17    1
    13    17    18    1
    14    18    19    1
    15    19    20    1
    16    20    23    1
    17    23    24    1
    18    24    25    1
    19    25    26    1
    20    26    27    1
    21    27    28    1
    22    20    21    1
    23    21    22    1
    24     5     6   ar
    25     6     7   ar
    26     7     8   ar
    27     8     9   ar
    28    16    11   ar
    29     9     1   ar
    30     7     3   ar
    31    22    17    1
    32    28    23    1
@<TRIPOS>MOLECULE
*****
 28 32 0 0 0
SMALL
GASTEIGER

@<TRIPOS>ATOM
      1 C         140.3543  141.5367  166.9672 C.ar    1  UNL1        0.0856
      2 C         140.9816  142.5073  166.0110 C.ar    1  UNL1        0.0273
      3 C         140.4873  142.5932  164.5975 C.ar    1  UNL1        0.0528
      4 S         140.9069  143.4467  163.4375 S.2     1  UNL1       -0.0514
      5 C         140.0446  143.0896  162.2633 C.ar    1  UNL1        0.1631
      6 N         139.0920  142.0153  162.6975 N.ar    1  UNL1       -0.2225
      7 C         139.3656  141.7086  164.1401 C.ar    1  UNL1        0.1084
      8 C         138.7382  140.7380  165.0963 C.ar    1  UNL1        0.1184
      9 N         139.2326  140.6521  166.5099 N.ar    1  UNL1       -0.2421
     10 F         140.0609  143.8901  168.8045 F       1  UNL1       -0.1832
     11 C         140.7019  142.6275  169.2995 C.ar    1  UNL1        0.2237
     12 N         141.1962  142.5416  170.7131 N.ar    1  UNL1       -0.2164
     13 C         141.8372  141.2790  171.2081 C.ar    1  UNL1        0.1013
     14 C         141.9839  140.1023  170.2895 C.ar    1  UNL1        0.0209
     15 C         141.4896  140.1882  168.8758 C.ar    1  UNL1        0.0069
     16 C         140.8486  141.4508  168.3809 C.ar    1  UNL1        0.0636
     17 N         140.1214  143.6995  160.8951 N.pl3   1  UNL1       -0.2881
     18 C         139.4704  143.0139  159.7306 C.3     1  UNL1        0.0940
     19 C         139.5472  143.6238  158.3624 C.3     1  UNL1        0.0375
     20 C         140.2750  144.9195  158.1586 C.3     1  UNL1        0.0609
     21 C         140.9260  145.6052  159.3231 C.3     1  UNL1        0.0375
     22 C         140.8492  144.9952  160.6913 C.3     1  UNL1        0.0940
     23 N         140.3518  145.5295  156.7904 N.3     1  UNL1       -0.2738
     24 C         141.2323  144.9144  155.7434 C.3     1  UNL1        0.0720
     25 C         141.3091  145.5244  154.3751 C.3     1  UNL1        0.0174
     26 C         140.5054  146.7494  154.0539 C.3     1  UNL1        0.0029
     27 C         139.6249  147.3645  155.1010 C.3     1  UNL1        0.0174
     28 C         139.5481  146.7545  156.4692 C.3     1  UNL1        0.0720
@<TRIPOS>BOND
     1    10    11    1
     2    11    12   ar
     3    12    13   ar
     4    13    14   ar
     5    14    15   ar
     6    15    16   ar
     7    16     1    1
     8     1     2   ar
     9     2     3   ar
    10     3     4   ar
    11     4     5   ar
    12     5    17    1
    13    17    18    1
    14    18    19    1
    15    19    20    1
    16    20    23    1
    17    23    24    1
    18    24    25    1
    19    25    26    1
    20    26    27    1
    21    27    28    1
    22    20    21    1
    23    21    22    1
    24     5     6   ar
    25     6     7   ar
    26     7     8   ar
    27     8     9   ar
    28    16    11   ar
    29     9     1   ar
    30     7     3   ar
    31    22    17    1
    32    28    23    1
@<TRIPOS>MOLECULE
*****
 28 32 0 0 0
SMALL
GASTEIGER

@<TRIPOS>ATOM
      1 C         140.3577  140.4043  166.1459 C.ar    1  UNL1        0.0856
      2 C         141.0540  141.3925  165.2579 C.ar    1  UNL1        0.0273
      3 C         140.4605  141.7548  163.9288 C.ar    1  UNL1        0.0528
      4 S         140.9155  142.6897  162.8477 S.2     1  UNL1       -0.0514
      5 C         139.9068  142.6418  161.7385 C.ar    1  UNL1        0.1631
      6 N         138.8284  141.6772  162.1342 N.ar    1  UNL1       -0.2225
      7 C         139.1705  141.1290  163.4878 C.ar    1  UNL1        0.1084
      8 C         138.4742  140.1408  164.3759 C.ar    1  UNL1        0.1184
      9 N         139.0678  139.7785  165.7049 N.ar    1  UNL1       -0.2421
     10 F         143.1098  139.2186  166.2864 F       1  UNL1       -0.1832
     11 C         142.3273  139.4491  167.5452 C.ar    1  UNL1        0.2237
     12 N         142.9209  139.0867  168.8742 N.ar    1  UNL1       -0.2164
     13 C         142.1384  139.3172  170.1331 C.ar    1  UNL1        0.1013
     14 C         140.7623  139.9101  170.0629 C.ar    1  UNL1        0.0209
     15 C         140.1688  140.2725  168.7337 C.ar    1  UNL1        0.0069
     16 C         140.9513  140.0420  167.4750 C.ar    1  UNL1        0.0636
     17 N         139.9662  143.4215  160.4585 N.pl3   1  UNL1       -0.2881
     18 C         139.4190  142.8294  159.1936 C.3     1  UNL1        0.0940
     19 C         139.4783  143.6091  157.9135 C.3     1  UNL1        0.0375
     20 C         140.0848  144.9809  157.8984 C.3     1  UNL1        0.0609
     21 C         140.6320  145.5730  159.1632 C.3     1  UNL1        0.0375
     22 C         140.5727  144.7933  160.4433 C.3     1  UNL1        0.0940
     23 N         140.1442  145.7606  156.6183 N.3     1  UNL1       -0.2738
     24 C         141.0003  145.2780  155.4851 C.3     1  UNL1        0.0720
     25 C         141.0596  146.0577  154.2051 C.3     1  UNL1        0.0174
     26 C         140.2628  147.3200  154.0582 C.3     1  UNL1        0.0029
     27 C         139.4067  147.8027  155.1914 C.3     1  UNL1        0.0174
     28 C         139.3474  147.0229  156.4714 C.3     1  UNL1        0.0720
@<TRIPOS>BOND
     1    10    11    1
     2    11    12   ar
     3    12    13   ar
     4    13    14   ar
     5    14    15   ar
     6    15    16   ar
     7    16     1    1
     8     1     2   ar
     9     2     3   ar
    10     3     4   ar
    11     4     5   ar
    12     5    17    1
    13    17    18    1
    14    18    19    1
    15    19    20    1
    16    20    23    1
    17    23    24    1
    18    24    25    1
    19    25    26    1
    20    26    27    1
    21    27    28    1
    22    20    21    1
    23    21    22    1
    24     5     6   ar
    25     6     7   ar
    26     7     8   ar
    27     8     9   ar
    28    16    11   ar
    29     9     1   ar
    30     7     3   ar
    31    22    17    1
    32    28    23    1
@<TRIPOS>MOLECULE
*****
 28 32 0 0 0
SMALL
GASTEIGER

@<TRIPOS>ATOM
      1 C         139.8861  145.4267  157.1642 C.ar    1  UNL1        0.0856
      2 C         140.4037  145.8411  158.5097 C.ar    1  UNL1        0.0273
      3 C         140.3584  144.8790  159.6596 C.ar    1  UNL1        0.0528
      4 S         140.7917  145.0037  161.0902 S.2     1  UNL1       -0.0514
      5 C         140.4966  143.7042  161.7788 C.ar    1  UNL1        0.1631
      6 N         139.8810  142.7764  160.7738 N.ar    1  UNL1       -0.2225
      7 C         139.7956  143.5025  159.4640 C.ar    1  UNL1        0.1084
      8 C         139.2780  143.0880  158.1185 C.ar    1  UNL1        0.1184
      9 N         139.3232  144.0501  156.9687 N.ar    1  UNL1       -0.2421
     10 F         138.4809  148.0697  157.3637 F       1  UNL1       -0.1832
     11 C         139.2288  147.7103  156.1140 C.ar    1  UNL1        0.2237
     12 N         139.2740  148.6724  154.9641 N.ar    1  UNL1       -0.2164
     13 C         140.0218  148.3130  153.7144 C.ar    1  UNL1        0.1013
     14 C         140.7244  146.9915  153.6147 C.ar    1  UNL1        0.0209
     15 C         140.6791  146.0294  154.7647 C.ar    1  UNL1        0.0069
     16 C         139.9313  146.3888  156.0143 C.ar    1  UNL1        0.0636
     17 N         140.7693  143.3880  163.2196 N.pl3   1  UNL1       -0.2881
     18 C         142.0842  142.7873  163.6197 C.3     1  UNL1        0.0940
     19 C         142.3569  142.4711  165.0604 C.3     1  UNL1        0.0375
     20 C         141.3147  142.7556  166.1010 C.3     1  UNL1        0.0609
     21 C         139.9998  143.3563  165.7008 C.3     1  UNL1        0.0375
     22 C         139.7271  143.6725  164.2601 C.3     1  UNL1        0.0940
     23 N         141.5874  142.4394  167.5417 N.3     1  UNL1       -0.2738
     24 C         142.9932  142.1903  168.0018 C.3     1  UNL1        0.0720
     25 C         143.2659  141.8741  169.4425 C.3     1  UNL1        0.0174
     26 C         142.1328  141.8071  170.4231 C.3     1  UNL1        0.0029
     27 C         140.7271  142.0562  169.9630 C.3     1  UNL1        0.0174
     28 C         140.4544  142.3724  168.5223 C.3     1  UNL1        0.0720
@<TRIPOS>BOND
     1    10    11    1
     2    11    12   ar
     3    12    13   ar
     4    13    14   ar
     5    14    15   ar
     6    15    16   ar
     7    16     1    1
     8     1     2   ar
     9     2     3   ar
    10     3     4   ar
    11     4     5   ar
    12     5    17    1
    13    17    18    1
    14    18    19    1
    15    19    20    1
    16    20    23    1
    17    23    24    1
    18    24    25    1
    19    25    26    1
    20    26    27    1
    21    27    28    1
    22    20    21    1
    23    21    22    1
    24     5     6   ar
    25     6     7   ar
    26     7     8   ar
    27     8     9   ar
    28    16    11   ar
    29     9     1   ar
    30     7     3   ar
    31    22    17    1
    32    28    23    1
@<TRIPOS>MOLECULE
*****
 28 32 0 0 0
SMALL
GASTEIGER

@<TRIPOS>ATOM
      1 C         139.9724  139.9515  167.6808 C.ar    1  UNL1        0.0856
      2 C         140.5640  140.3353  166.3570 C.ar    1  UNL1        0.0273
      3 C         139.8547  139.9742  165.0856 C.ar    1  UNL1        0.0528
      4 S         140.1921  140.2167  163.6443 S.2     1  UNL1       -0.0514
      5 C         139.0997  139.6218  162.8060 C.ar    1  UNL1        0.1631
      6 N         138.0872  139.0115  163.7292 N.ar    1  UNL1       -0.2225
      7 C         138.5538  139.2293  165.1381 C.ar    1  UNL1        0.1084
      8 C         137.9622  138.8455  166.4619 C.ar    1  UNL1        0.1184
      9 N         138.6715  139.2066  167.7333 N.ar    1  UNL1       -0.2421
     10 F         138.4021  140.8780  170.0633 F       1  UNL1       -0.1832
     11 C         139.8966  140.7759  170.1435 C.ar    1  UNL1        0.2237
     12 N         140.6058  141.1370  171.4149 N.ar    1  UNL1       -0.2164
     13 C         142.1002  141.0349  171.4952 C.ar    1  UNL1        0.1013
     14 C         142.8853  140.5717  170.3040 C.ar    1  UNL1        0.0209
     15 C         142.1760  140.2106  169.0325 C.ar    1  UNL1        0.0069
     16 C         140.6817  140.3127  168.9523 C.ar    1  UNL1        0.0636
     17 N         139.0318  139.6349  161.3076 N.pl3   1  UNL1       -0.2881
     18 C         138.2863  140.7274  160.6001 C.3     1  UNL1        0.0940
     19 C         138.2184  140.7405  159.1017 C.3     1  UNL1        0.0375
     20 C         138.8959  139.6610  158.3108 C.3     1  UNL1        0.0609
     21 C         139.6414  138.5684  159.0182 C.3     1  UNL1        0.0375
     22 C         139.7093  138.5554  160.5166 C.3     1  UNL1        0.0940
     23 N         138.8280  139.6740  156.8124 N.3     1  UNL1       -0.2738
     24 C         137.9763  140.6888  156.1090 C.3     1  UNL1        0.0720
     25 C         137.9083  140.7019  154.6106 C.3     1  UNL1        0.0174
     26 C         138.6921  139.7002  153.8156 C.3     1  UNL1        0.0029
     27 C         139.5438  138.6854  154.5189 C.3     1  UNL1        0.0174
     28 C         139.6118  138.6723  156.0173 C.3     1  UNL1        0.0720
@<TRIPOS>BOND
     1    10    11    1
     2    11    12   ar
     3    12    13   ar
     4    13    14   ar
     5    14    15   ar
     6    15    16   ar
     7    16     1    1
     8     1     2   ar
     9     2     3   ar
    10     3     4   ar
    11     4     5   ar
    12     5    17    1
    13    17    18    1
    14    18    19    1
    15    19    20    1
    16    20    23    1
    17    23    24    1
    18    24    25    1
    19    25    26    1
    20    26    27    1
    21    27    28    1
    22    20    21    1
    23    21    22    1
    24     5     6   ar
    25     6     7   ar
    26     7     8   ar
    27     8     9   ar
    28    16    11   ar
    29     9     1   ar
    30     7     3   ar
    31    22    17    1
    32    28    23    1
@<TRIPOS>MOLECULE
*****
 28 32 0 0 0
SMALL
GASTEIGER

@<TRIPOS>ATOM
      1 C         139.9168  145.4030  157.2184 C.ar    1  UNL1        0.0856
      2 C         140.4083  145.8269  158.5707 C.ar    1  UNL1        0.0273
      3 C         140.3776  144.8598  159.7168 C.ar    1  UNL1        0.0528
      4 S         140.7920  144.9913  161.1524 S.2     1  UNL1       -0.0514
      5 C         140.5259  143.6816  161.8336 C.ar    1  UNL1        0.1631
      6 N         139.9471  142.7407  160.8189 N.ar    1  UNL1       -0.2225
      7 C         139.8554  143.4688  159.5107 C.ar    1  UNL1        0.1084
      8 C         139.3639  143.0449  158.1584 C.ar    1  UNL1        0.1184
      9 N         139.3946  144.0120  157.0123 N.ar    1  UNL1       -0.2421
     10 F         141.6881  144.8731  154.8558 F       1  UNL1       -0.1832
     11 C         140.8331  146.1052  154.8908 C.ar    1  UNL1        0.2237
     12 N         140.8639  147.0722  153.7446 N.ar    1  UNL1       -0.2164
     13 C         140.0089  148.3042  153.7796 C.ar    1  UNL1        0.1013
     14 C         139.1232  148.5692  154.9609 C.ar    1  UNL1        0.0209
     15 C         139.0925  147.6020  156.1072 C.ar    1  UNL1        0.0069
     16 C         139.9475  146.3701  156.0721 C.ar    1  UNL1        0.0636
     17 N         140.7920  143.3680  163.2761 N.pl3   1  UNL1       -0.2881
     18 C         142.1950  143.1151  163.7422 C.3     1  UNL1        0.0940
     19 C         142.4611  142.8015  165.1848 C.3     1  UNL1        0.0375
     20 C         141.3241  142.7408  166.1612 C.3     1  UNL1        0.0609
     21 C         139.9210  142.9937  165.6950 C.3     1  UNL1        0.0375
     22 C         139.6549  143.3073  164.2525 C.3     1  UNL1        0.0940
     23 N         141.5901  142.4271  167.6037 N.3     1  UNL1       -0.2738
     24 C         140.4702  142.4746  168.6004 C.3     1  UNL1        0.0720
     25 C         140.7363  142.1610  170.0429 C.3     1  UNL1        0.0174
     26 C         142.1222  141.7999  170.4887 C.3     1  UNL1        0.0029
     27 C         143.2421  141.7524  169.4919 C.3     1  UNL1        0.0174
     28 C         142.9760  142.0660  168.0494 C.3     1  UNL1        0.0720
@<TRIPOS>BOND
     1    10    11    1
     2    11    12   ar
     3    12    13   ar
     4    13    14   ar
     5    14    15   ar
     6    15    16   ar
     7    16     1    1
     8     1     2   ar
     9     2     3   ar
    10     3     4   ar
    11     4     5   ar
    12     5    17    1
    13    17    18    1
    14    18    19    1
    15    19    20    1
    16    20    23    1
    17    23    24    1
    18    24    25    1
    19    25    26    1
    20    26    27    1
    21    27    28    1
    22    20    21    1
    23    21    22    1
    24     5     6   ar
    25     6     7   ar
    26     7     8   ar
    27     8     9   ar
    28    16    11   ar
    29     9     1   ar
    30     7     3   ar
    31    22    17    1
    32    28    23    1
@<TRIPOS>MOLECULE
*****
 28 32 0 0 0
SMALL
GASTEIGER

@<TRIPOS>ATOM
      1 C         141.3931  140.4541  167.0499 C.ar    1  UNL1        0.0856
      2 C         140.7560  140.6738  165.7099 C.ar    1  UNL1        0.0273
      3 C         141.2359  139.9030  164.5159 C.ar    1  UNL1        0.0528
      4 S         140.8044  139.9064  163.0793 S.2     1  UNL1       -0.0514
      5 C         141.6546  138.9180  162.3376 C.ar    1  UNL1        0.1631
      6 N         142.6116  138.3038  163.3158 N.ar    1  UNL1       -0.2225
      7 C         142.3528  138.9125  164.6621 C.ar    1  UNL1        0.1084
      8 C         142.9899  138.6928  166.0022 C.ar    1  UNL1        0.1184
      9 N         142.5100  139.4637  167.1961 N.ar    1  UNL1       -0.2421
     10 F         138.9705  139.5288  168.5582 F       1  UNL1       -0.1832
     11 C         139.7019  140.7623  168.9981 C.ar    1  UNL1        0.2237
     12 N         139.2221  141.5331  170.1920 N.ar    1  UNL1       -0.2164
     13 C         139.9535  142.7666  170.6319 C.ar    1  UNL1        0.1013
     14 C         141.1648  143.2293  169.8778 C.ar    1  UNL1        0.0209
     15 C         141.6446  142.4585  168.6838 C.ar    1  UNL1        0.0069
     16 C         140.9132  141.2250  168.2440 C.ar    1  UNL1        0.0636
     17 N         141.5639  138.5998  160.8746 N.pl3   1  UNL1       -0.2881
     18 C         142.7505  138.0292  160.1561 C.3     1  UNL1        0.0940
     19 C         142.6597  137.7110  158.6930 C.3     1  UNL1        0.0375
     20 C         141.3823  137.9633  157.9485 C.3     1  UNL1        0.0609
     21 C         140.1957  138.5339  158.6669 C.3     1  UNL1        0.0375
     22 C         140.2864  138.8521  160.1300 C.3     1  UNL1        0.0940
     23 N         141.2916  137.6451  156.4854 N.3     1  UNL1       -0.2738
     24 C         141.4260  136.2266  156.0167 C.3     1  UNL1        0.0720
     25 C         141.3352  135.9084  154.5536 C.3     1  UNL1        0.0174
     26 C         141.1100  137.0086  153.5593 C.3     1  UNL1        0.0029
     27 C         140.9756  138.4271  154.0281 C.3     1  UNL1        0.0174
     28 C         141.0664  138.7454  155.4911 C.3     1  UNL1        0.0720
@<TRIPOS>BOND
     1    10    11    1
     2    11    12   ar
     3    12    13   ar
     4    13    14   ar
     5    14    15   ar
     6    15    16   ar
     7    16     1    1
     8     1     2   ar
     9     2     3   ar
    10     3     4   ar
    11     4     5   ar
    12     5    17    1
    13    17    18    1
    14    18    19    1
    15    19    20    1
    16    20    23    1
    17    23    24    1
    18    24    25    1
    19    25    26    1
    20    26    27    1
    21    27    28    1
    22    20    21    1
    23    21    22    1
    24     5     6   ar
    25     6     7   ar
    26     7     8   ar
    27     8     9   ar
    28    16    11   ar
    29     9     1   ar
    30     7     3   ar
    31    22    17    1
    32    28    23    1
@<TRIPOS>MOLECULE
*****
 28 32 0 0 0
SMALL
GASTEIGER

@<TRIPOS>ATOM
      1 C         141.3422  142.3821  166.6287 C.ar    1  UNL1        0.0856
      2 C         142.0840  142.2942  165.3280 C.ar    1  UNL1        0.0273
      3 C         141.5541  142.9970  164.1134 C.ar    1  UNL1        0.0528
      4 S         142.0635  143.0904  162.7056 S.2     1  UNL1       -0.0514
      5 C         141.1065  143.9387  161.9217 C.ar    1  UNL1        0.1631
      6 N         140.0057  144.3696  162.8450 N.ar    1  UNL1       -0.2225
      7 C         140.2823  143.7876  164.1995 C.ar    1  UNL1        0.1084
      8 C         139.5404  143.8754  165.5002 C.ar    1  UNL1        0.1184
      9 N         140.0704  143.1727  166.7148 N.ar    1  UNL1       -0.2421
     10 F         140.1577  139.7610  167.4812 F       1  UNL1       -0.1832
     11 C         141.2799  140.3687  168.2696 C.ar    1  UNL1        0.2237
     12 N         141.8098  139.6659  169.4842 N.ar    1  UNL1       -0.2164
     13 C         142.9319  140.2736  170.2726 C.ar    1  UNL1        0.1013
     14 C         143.5242  141.5842  169.8463 C.ar    1  UNL1        0.0209
     15 C         142.9942  142.2870  168.6316 C.ar    1  UNL1        0.0069
     16 C         141.8721  141.6792  167.8433 C.ar    1  UNL1        0.0636
     17 N         141.2288  144.2938  160.4695 N.pl3   1  UNL1       -0.2881
     18 C         140.2392  145.2288  159.8400 C.3     1  UNL1        0.0940
     19 C         140.3616  145.5839  158.3878 C.3     1  UNL1        0.0375
     20 C         141.4735  145.0039  157.5650 C.3     1  UNL1        0.0609
     21 C         142.4632  144.0688  158.1944 C.3     1  UNL1        0.0375
     22 C         142.3408  143.7137  159.6467 C.3     1  UNL1        0.0940
     23 N         141.5959  145.3589  156.1128 N.3     1  UNL1       -0.2738
     24 C         140.6087  146.2973  155.4844 C.3     1  UNL1        0.0720
     25 C         140.7311  146.6523  154.0321 C.3     1  UNL1        0.0174
     26 C         141.8406  146.0690  153.2083 C.3     1  UNL1        0.0029
     27 C         142.8278  145.1307  153.8368 C.3     1  UNL1        0.0174
     28 C         142.7054  144.7756  155.2890 C.3     1  UNL1        0.0720
@<TRIPOS>BOND
     1    10    11    1
     2    11    12   ar
     3    12    13   ar
     4    13    14   ar
     5    14    15   ar
     6    15    16   ar
     7    16     1    1
     8     1     2   ar
     9     2     3   ar
    10     3     4   ar
    11     4     5   ar
    12     5    17    1
    13    17    18    1
    14    18    19    1
    15    19    20    1
    16    20    23    1
    17    23    24    1
    18    24    25    1
    19    25    26    1
    20    26    27    1
    21    27    28    1
    22    20    21    1
    23    21    22    1
    24     5     6   ar
    25     6     7   ar
    26     7     8   ar
    27     8     9   ar
    28    16    11   ar
    29     9     1   ar
    30     7     3   ar
    31    22    17    1
    32    28    23    1
