@<TRIPOS>MOLECULE
*****
 30 34 0 0 0
SMALL
GASTEIGER

@<TRIPOS>ATOM
      1 C         141.7370  138.7934  161.5963 C.ar    1  UNL1        0.0681
      2 C         141.1441  139.4962  160.4111 C.ar    1  UNL1        0.0208
      3 C         141.5650  139.1122  159.0236 C.ar    1  UNL1        0.0384
      4 C         142.5787  138.0253  158.8212 C.ar    1  UNL1        0.1385
      5 C         143.1715  137.3225  160.0063 C.ar    1  UNL1        0.0384
      6 C         142.7507  137.7065  161.3939 C.ar    1  UNL1        0.0208
      7 C         143.2992  140.8503  163.1222 C.3     1  UNL1        0.0723
      8 C         142.0971  140.2060  163.7468 C.ar    1  UNL1        0.1268
      9 N         141.6763  140.5901  165.1344 N.ar    1  UNL1       -0.2318
     10 C         140.4743  139.9458  165.7590 C.ar    1  UNL1        0.0894
     11 C         140.0534  140.3300  167.1465 C.ar    1  UNL1        0.0489
     12 C         138.8514  139.6856  167.7710 C.ar    1  UNL1        0.1416
     13 F         138.4305  140.0698  169.1586 F       1  UNL1       -0.2041
     14 C         138.0703  138.6572  167.0080 C.ar    1  UNL1        0.0299
     15 C         138.4912  138.2730  165.6205 C.ar    1  UNL1        0.0086
     16 C         139.6932  138.9174  164.9960 C.ar    1  UNL1        0.0743
     17 C         140.1141  138.5332  163.6084 C.ar    1  UNL1        0.2670
     18 O         139.3330  137.5048  162.8454 O.2     1  UNL1       -0.2665
     19 N         141.3160  139.1775  162.9839 N.ar    1  UNL1       -0.2626
     20 O         142.9996  137.6411  157.4336 O.3     1  UNL1       -0.4791
     21 C         142.6451  136.2890  156.8896 C.3     1  UNL1        0.1687
     22 C         143.3567  135.0680  157.3927 C.3     1  UNL1        0.0609
     23 C         143.0022  133.7158  156.8487 C.3     1  UNL1        0.0758
     24 N         141.9360  133.5846  155.8017 N.3     1  UNL1       -0.2737
     25 C         141.2245  134.8055  155.2987 C.3     1  UNL1        0.0758
     26 C         141.5790  136.1577  155.8426 C.3     1  UNL1        0.0609
     27 C         141.5815  132.2324  155.2577 C.3     1  UNL1        0.0575
     28 C         140.6377  131.7256  154.2076 C.3     1  UNL1        0.0160
     29 C         141.0801  130.3201  154.4884 C.3     1  UNL1        0.0028
     30 C         142.0238  130.8269  155.5384 C.3     1  UNL1        0.0160
@<TRIPOS>BOND
     1     7     8    1
     2     8     9   ar
     3     9    10   ar
     4    10    11   ar
     5    11    12   ar
     6    12    13    1
     7    12    14   ar
     8    14    15   ar
     9    15    16   ar
    10    16    17   ar
    11    17    18    2
    12    17    19   ar
    13    19     1    1
    14     1     2   ar
    15     2     3   ar
    16     3     4   ar
    17     4    20    1
    18    20    21    1
    19    21    22    1
    20    22    23    1
    21    23    24    1
    22    24    27    1
    23    27    28    1
    24    28    29    1
    25    29    30    1
    26    24    25    1
    27    25    26    1
    28     4     5   ar
    29     5     6   ar
    30    19     8   ar
    31     6     1   ar
    32    16    10   ar
    33    26    21    1
    34    30    27    1
@<TRIPOS>MOLECULE
*****
 30 34 0 0 0
SMALL
GASTEIGER

@<TRIPOS>ATOM
      1 C         140.8807  139.3879  160.1951 C.ar    1  UNL1        0.0681
      2 C         140.4945  139.4043  158.7457 C.ar    1  UNL1        0.0208
      3 C         141.3054  138.6360  157.7447 C.ar    1  UNL1        0.0384
      4 C         142.5026  137.8514  158.1930 C.ar    1  UNL1        0.1385
      5 C         142.8889  137.8350  159.6423 C.ar    1  UNL1        0.0384
      6 C         142.0779  138.6033  160.6434 C.ar    1  UNL1        0.0208
      7 C         138.6286  138.0426  161.6506 C.3     1  UNL1        0.0723
      8 C         138.9436  139.4836  161.9239 C.ar    1  UNL1        0.1268
      9 N         138.1326  140.2518  162.9249 N.ar    1  UNL1       -0.2318
     10 C         138.4476  141.6927  163.1982 C.ar    1  UNL1        0.0894
     11 C         137.6366  142.4609  164.1992 C.ar    1  UNL1        0.0489
     12 C         137.9516  143.9017  164.4724 C.ar    1  UNL1        0.1416
     13 F         137.1406  144.6700  165.4735 F       1  UNL1       -0.2041
     14 C         139.0777  144.5743  163.7447 C.ar    1  UNL1        0.0299
     15 C         139.8887  143.8061  162.7437 C.ar    1  UNL1        0.0086
     16 C         139.5737  142.3653  162.4704 C.ar    1  UNL1        0.0743
     17 C         140.3847  141.5970  161.4694 C.ar    1  UNL1        0.2670
     18 O         141.5107  142.2696  160.7416 O.2     1  UNL1       -0.2665
     19 N         140.0697  140.1562  161.1961 N.ar    1  UNL1       -0.2626
     20 O         143.3137  137.0831  157.1920 O.3     1  UNL1       -0.4791
     21 C         142.8594  135.7264  156.7414 C.3     1  UNL1        0.1687
     22 C         141.8127  135.6021  155.6741 C.3     1  UNL1        0.0609
     23 C         141.3584  134.2454  155.2235 C.3     1  UNL1        0.0758
     24 N         141.9509  133.0130  155.8402 N.3     1  UNL1       -0.2737
     25 C         142.9976  133.1374  156.9074 C.3     1  UNL1        0.0758
     26 C         143.4519  134.4941  157.3579 C.3     1  UNL1        0.0609
     27 C         141.4967  131.6563  155.3896 C.3     1  UNL1        0.0575
     28 C         142.0219  130.2589  155.5366 C.3     1  UNL1        0.0160
     29 C         140.8543  129.7377  154.7524 C.3     1  UNL1        0.0028
     30 C         140.3292  131.1350  154.6054 C.3     1  UNL1        0.0160
@<TRIPOS>BOND
     1     7     8    1
     2     8     9   ar
     3     9    10   ar
     4    10    11   ar
     5    11    12   ar
     6    12    13    1
     7    12    14   ar
     8    14    15   ar
     9    15    16   ar
    10    16    17   ar
    11    17    18    2
    12    17    19   ar
    13    19     1    1
    14     1     2   ar
    15     2     3   ar
    16     3     4   ar
    17     4    20    1
    18    20    21    1
    19    21    22    1
    20    22    23    1
    21    23    24    1
    22    24    27    1
    23    27    28    1
    24    28    29    1
    25    29    30    1
    26    24    25    1
    27    25    26    1
    28     4     5   ar
    29     5     6   ar
    30    19     8   ar
    31     6     1   ar
    32    16    10   ar
    33    26    21    1
    34    30    27    1
@<TRIPOS>MOLECULE
*****
 30 34 0 0 0
SMALL
GASTEIGER

@<TRIPOS>ATOM
      1 C         140.8807  139.3915  160.1937 C.ar    1  UNL1        0.0681
      2 C         142.1023  138.6393  160.6317 C.ar    1  UNL1        0.0208
      3 C         142.9109  137.8723  159.6278 C.ar    1  UNL1        0.0384
      4 C         142.4978  137.8574  158.1859 C.ar    1  UNL1        0.1385
      5 C         141.2762  138.6096  157.7479 C.ar    1  UNL1        0.0384
      6 C         140.4676  139.3767  158.7518 C.ar    1  UNL1        0.0208
      7 C         138.6472  138.0381  161.6701 C.3     1  UNL1        0.0723
      8 C         138.9554  139.4819  161.9359 C.ar    1  UNL1        0.1268
      9 N         138.1469  140.2489  162.9398 N.ar    1  UNL1       -0.2318
     10 C         138.4551  141.6927  163.2056 C.ar    1  UNL1        0.0894
     11 C         137.6465  142.4597  164.2096 C.ar    1  UNL1        0.0489
     12 C         137.9548  143.9034  164.4753 C.ar    1  UNL1        0.1416
     13 F         137.1462  144.6704  165.4793 F       1  UNL1       -0.2041
     14 C         139.0715  144.5801  163.7371 C.ar    1  UNL1        0.0299
     15 C         139.8800  143.8131  162.7332 C.ar    1  UNL1        0.0086
     16 C         139.5718  142.3694  162.4674 C.ar    1  UNL1        0.0743
     17 C         140.3804  141.6023  161.4634 C.ar    1  UNL1        0.2670
     18 O         141.4971  142.2790  160.7252 O.2     1  UNL1       -0.2665
     19 N         140.0722  140.1586  161.1977 N.ar    1  UNL1       -0.2626
     20 O         143.3063  137.0904  157.1819 O.3     1  UNL1       -0.4791
     21 C         142.8526  135.7329  156.7331 C.3     1  UNL1        0.1687
     22 C         143.4410  134.5016  157.3556 C.3     1  UNL1        0.0609
     23 C         142.9872  133.1441  156.9068 C.3     1  UNL1        0.0758
     24 N         141.9450  133.0181  155.8353 N.3     1  UNL1       -0.2737
     25 C         141.3566  134.2494  155.2128 C.3     1  UNL1        0.0758
     26 C         141.8104  135.6068  155.6617 C.3     1  UNL1        0.0609
     27 C         141.4912  131.6607  155.3865 C.3     1  UNL1        0.0575
     28 C         142.0152  130.2633  155.5380 C.3     1  UNL1        0.0160
     29 C         140.8495  129.7410  154.7517 C.3     1  UNL1        0.0028
     30 C         140.3255  131.1382  154.6002 C.3     1  UNL1        0.0160
@<TRIPOS>BOND
     1     7     8    1
     2     8     9   ar
     3     9    10   ar
     4    10    11   ar
     5    11    12   ar
     6    12    13    1
     7    12    14   ar
     8    14    15   ar
     9    15    16   ar
    10    16    17   ar
    11    17    18    2
    12    17    19   ar
    13    19     1    1
    14     1     2   ar
    15     2     3   ar
    16     3     4   ar
    17     4    20    1
    18    20    21    1
    19    21    22    1
    20    22    23    1
    21    23    24    1
    22    24    27    1
    23    27    28    1
    24    28    29    1
    25    29    30    1
    26    24    25    1
    27    25    26    1
    28     4     5   ar
    29     5     6   ar
    30    19     8   ar
    31     6     1   ar
    32    16    10   ar
    33    26    21    1
    34    30    27    1
@<TRIPOS>MOLECULE
*****
 30 34 0 0 0
SMALL
GASTEIGER

@<TRIPOS>ATOM
      1 C         141.2389  138.7389  162.0795 C.ar    1  UNL1        0.0681
      2 C         142.3155  137.7134  161.8813 C.ar    1  UNL1        0.0208
      3 C         142.9238  137.5172  160.5243 C.ar    1  UNL1        0.0384
      4 C         142.4554  138.3465  159.3655 C.ar    1  UNL1        0.1385
      5 C         141.3788  139.3719  159.5637 C.ar    1  UNL1        0.0384
      6 C         140.7705  139.5681  160.9207 C.ar    1  UNL1        0.0208
      7 C         138.4620  137.7494  162.6359 C.3     1  UNL1        0.0723
      8 C         139.2422  138.4403  163.7148 C.ar    1  UNL1        0.1268
      9 N         138.6339  138.6364  165.0718 N.ar    1  UNL1       -0.2318
     10 C         139.4141  139.3273  166.1507 C.ar    1  UNL1        0.0894
     11 C         138.8059  139.5234  167.5077 C.ar    1  UNL1        0.0489
     12 C         139.5861  140.2143  168.5865 C.ar    1  UNL1        0.1416
     13 F         138.9778  140.4105  169.9436 F       1  UNL1       -0.2041
     14 C         140.9746  140.7090  168.3084 C.ar    1  UNL1        0.0299
     15 C         141.5828  140.5129  166.9514 C.ar    1  UNL1        0.0086
     16 C         140.8026  139.8221  165.8725 C.ar    1  UNL1        0.0743
     17 C         141.4109  139.6259  164.5154 C.ar    1  UNL1        0.2670
     18 O         142.7993  140.1206  164.2373 O.2     1  UNL1       -0.2665
     19 N         140.6307  138.9350  163.4366 N.ar    1  UNL1       -0.2626
     20 O         143.0637  138.1503  158.0084 O.3     1  UNL1       -0.4791
     21 C         142.6507  136.9819  157.1632 C.3     1  UNL1        0.1687
     22 C         141.5346  137.1306  156.1720 C.3     1  UNL1        0.0609
     23 C         141.1216  135.9622  155.3268 C.3     1  UNL1        0.0758
     24 N         141.8247  134.6452  155.4728 N.3     1  UNL1       -0.2737
     25 C         142.9407  134.4966  156.4640 C.3     1  UNL1        0.0758
     26 C         143.3537  135.6650  157.3092 C.3     1  UNL1        0.0609
     27 C         141.4117  133.4768  154.6277 C.3     1  UNL1        0.0575
     28 C         141.2421  133.2394  153.1563 C.3     1  UNL1        0.0160
     29 C         140.8277  131.8245  153.4324 C.3     1  UNL1        0.0028
     30 C         140.9973  132.0619  154.9037 C.3     1  UNL1        0.0160
@<TRIPOS>BOND
     1     7     8    1
     2     8     9   ar
     3     9    10   ar
     4    10    11   ar
     5    11    12   ar
     6    12    13    1
     7    12    14   ar
     8    14    15   ar
     9    15    16   ar
    10    16    17   ar
    11    17    18    2
    12    17    19   ar
    13    19     1    1
    14     1     2   ar
    15     2     3   ar
    16     3     4   ar
    17     4    20    1
    18    20    21    1
    19    21    22    1
    20    22    23    1
    21    23    24    1
    22    24    27    1
    23    27    28    1
    24    28    29    1
    25    29    30    1
    26    24    25    1
    27    25    26    1
    28     4     5   ar
    29     5     6   ar
    30    19     8   ar
    31     6     1   ar
    32    16    10   ar
    33    26    21    1
    34    30    27    1
@<TRIPOS>MOLECULE
*****
 30 34 0 0 0
SMALL
GASTEIGER

@<TRIPOS>ATOM
      1 C         139.8097  139.4103  164.5782 C.ar    1  UNL1        0.0681
      2 C         140.2479  138.0542  164.1103 C.ar    1  UNL1        0.0208
      3 C         140.0104  137.6383  162.6889 C.ar    1  UNL1        0.0384
      4 C         139.3347  138.5784  161.7353 C.ar    1  UNL1        0.1385
      5 C         138.8964  139.9346  162.2032 C.ar    1  UNL1        0.0384
      6 C         139.1339  140.3505  163.6246 C.ar    1  UNL1        0.0208
      7 C         137.8409  138.6533  166.7115 C.3     1  UNL1        0.0723
      8 C         139.0628  139.4477  167.0664 C.ar    1  UNL1        0.1268
      9 N         139.3003  139.8636  168.4878 N.ar    1  UNL1       -0.2318
     10 C         140.5223  140.6580  168.8427 C.ar    1  UNL1        0.0894
     11 C         140.7598  141.0738  170.2642 C.ar    1  UNL1        0.0489
     12 C         141.9817  141.8682  170.6190 C.ar    1  UNL1        0.1416
     13 F         142.2192  142.2841  172.0405 F       1  UNL1       -0.2041
     14 C         142.9661  142.2467  169.5524 C.ar    1  UNL1        0.0299
     15 C         142.7286  141.8308  168.1309 C.ar    1  UNL1        0.0086
     16 C         141.5067  141.0364  167.7761 C.ar    1  UNL1        0.0743
     17 C         141.2691  140.6205  166.3545 C.ar    1  UNL1        0.2670
     18 O         142.2535  140.9990  165.2879 O.2     1  UNL1       -0.2665
     19 N         140.0472  139.8262  165.9997 N.ar    1  UNL1       -0.2626
     20 O         139.0971  138.1625  160.3138 O.3     1  UNL1       -0.4791
     21 C         140.1909  138.3066  159.2974 C.3     1  UNL1        0.1687
     22 C         139.9082  138.0404  157.8485 C.3     1  UNL1        0.0609
     23 C         141.0019  138.1845  156.8322 C.3     1  UNL1        0.0758
     24 N         142.3784  138.5948  157.2648 N.3     1  UNL1       -0.2737
     25 C         142.6610  138.8610  158.7136 C.3     1  UNL1        0.0758
     26 C         141.5673  138.7169  159.7300 C.3     1  UNL1        0.0609
     27 C         143.4722  138.7389  156.2485 C.3     1  UNL1        0.0575
     28 C         144.1185  137.8258  155.2491 C.3     1  UNL1        0.0160
     29 C         145.0190  138.9427  154.8112 C.3     1  UNL1        0.0028
     30 C         144.3727  139.8556  155.8104 C.3     1  UNL1        0.0160
@<TRIPOS>BOND
     1     7     8    1
     2     8     9   ar
     3     9    10   ar
     4    10    11   ar
     5    11    12   ar
     6    12    13    1
     7    12    14   ar
     8    14    15   ar
     9    15    16   ar
    10    16    17   ar
    11    17    18    2
    12    17    19   ar
    13    19     1    1
    14     1     2   ar
    15     2     3   ar
    16     3     4   ar
    17     4    20    1
    18    20    21    1
    19    21    22    1
    20    22    23    1
    21    23    24    1
    22    24    27    1
    23    27    28    1
    24    28    29    1
    25    29    30    1
    26    24    25    1
    27    25    26    1
    28     4     5   ar
    29     5     6   ar
    30    19     8   ar
    31     6     1   ar
    32    16    10   ar
    33    26    21    1
    34    30    27    1
@<TRIPOS>MOLECULE
*****
 30 34 0 0 0
SMALL
GASTEIGER

@<TRIPOS>ATOM
      1 C         140.7394  139.3448  163.7884 C.ar    1  UNL1        0.0681
      2 C         140.0240  140.0323  162.6634 C.ar    1  UNL1        0.0208
      3 C         140.2926  139.6266  161.2446 C.ar    1  UNL1        0.0384
      4 C         141.2768  138.5335  160.9507 C.ar    1  UNL1        0.1385
      5 C         141.9923  137.8460  162.0756 C.ar    1  UNL1        0.0384
      6 C         141.7236  138.2517  163.4944 C.ar    1  UNL1        0.0208
      7 C         138.5914  137.9632  165.3623 C.3     1  UNL1        0.0723
      8 C         139.3967  139.0597  165.9943 C.ar    1  UNL1        0.1268
      9 N         139.1280  139.4654  167.4131 N.ar    1  UNL1       -0.2318
     10 C         139.9333  140.5619  168.0451 C.ar    1  UNL1        0.0894
     11 C         139.6645  140.9676  169.4639 C.ar    1  UNL1        0.0489
     12 C         140.4698  142.0640  170.0958 C.ar    1  UNL1        0.1416
     13 F         140.2011  142.4697  171.5147 F       1  UNL1       -0.2041
     14 C         141.5438  142.7548  169.3088 C.ar    1  UNL1        0.0299
     15 C         141.8125  142.3491  167.8899 C.ar    1  UNL1        0.0086
     16 C         141.0073  141.2527  167.2581 C.ar    1  UNL1        0.0743
     17 C         141.2760  140.8470  165.8392 C.ar    1  UNL1        0.2670
     18 O         142.3500  141.5377  165.0522 O.2     1  UNL1       -0.2665
     19 N         140.4707  139.7505  165.2073 N.ar    1  UNL1       -0.2626
     20 O         141.5455  138.1278  159.5317 O.3     1  UNL1       -0.4791
     21 C         142.5660  138.8693  158.7201 C.3     1  UNL1        0.1687
     22 C         142.8130  138.4832  157.2918 C.3     1  UNL1        0.0609
     23 C         143.8334  139.2247  156.4802 C.3     1  UNL1        0.0758
     24 N         144.6069  140.3524  157.0968 N.3     1  UNL1       -0.2737
     25 C         144.3599  140.7384  158.5251 C.3     1  UNL1        0.0758
     26 C         143.3394  139.9969  159.3367 C.3     1  UNL1        0.0609
     27 C         145.6274  141.0939  156.2852 C.3     1  UNL1        0.0575
     28 C         146.6310  142.1714  156.5713 C.3     1  UNL1        0.0160
     29 C         147.0706  142.1426  155.1374 C.3     1  UNL1        0.0028
     30 C         146.0670  141.0652  154.8514 C.3     1  UNL1        0.0160
@<TRIPOS>BOND
     1     7     8    1
     2     8     9   ar
     3     9    10   ar
     4    10    11   ar
     5    11    12   ar
     6    12    13    1
     7    12    14   ar
     8    14    15   ar
     9    15    16   ar
    10    16    17   ar
    11    17    18    2
    12    17    19   ar
    13    19     1    1
    14     1     2   ar
    15     2     3   ar
    16     3     4   ar
    17     4    20    1
    18    20    21    1
    19    21    22    1
    20    22    23    1
    21    23    24    1
    22    24    27    1
    23    27    28    1
    24    28    29    1
    25    29    30    1
    26    24    25    1
    27    25    26    1
    28     4     5   ar
    29     5     6   ar
    30    19     8   ar
    31     6     1   ar
    32    16    10   ar
    33    26    21    1
    34    30    27    1
@<TRIPOS>MOLECULE
*****
 30 34 0 0 0
SMALL
GASTEIGER

@<TRIPOS>ATOM
      1 C         141.5725  139.6405  162.6387 C.ar    1  UNL1        0.0681
      2 C         141.9935  140.8349  161.8347 C.ar    1  UNL1        0.0208
      3 C         141.8538  140.8208  160.3413 C.ar    1  UNL1        0.0384
      4 C         141.2931  139.6124  159.6519 C.ar    1  UNL1        0.1385
      5 C         140.8722  138.4180  160.4558 C.ar    1  UNL1        0.0384
      6 C         141.0119  138.4321  161.9492 C.ar    1  UNL1        0.0208
      7 C         144.2586  139.1945  163.8981 C.3     1  UNL1        0.0723
      8 C         143.0553  139.4316  164.7619 C.ar    1  UNL1        0.1268
      9 N         143.1950  139.4457  166.2552 N.ar    1  UNL1       -0.2318
     10 C         141.9917  139.6828  167.1190 C.ar    1  UNL1        0.0894
     11 C         142.1315  139.6969  168.6123 C.ar    1  UNL1        0.0489
     12 C         140.9282  139.9340  169.4760 C.ar    1  UNL1        0.1416
     13 F         141.0680  139.9481  170.9694 F       1  UNL1       -0.2041
     14 C         139.5852  140.1570  168.8462 C.ar    1  UNL1        0.0299
     15 C         139.4454  140.1429  167.3529 C.ar    1  UNL1        0.0086
     16 C         140.6487  139.9058  166.4892 C.ar    1  UNL1        0.0743
     17 C         140.5090  139.8917  164.9958 C.ar    1  UNL1        0.2670
     18 O         139.1660  140.1147  164.3660 O.2     1  UNL1       -0.2665
     19 N         141.7122  139.6546  164.1321 N.ar    1  UNL1       -0.2626
     20 O         141.1534  139.5983  158.1584 O.3     1  UNL1       -0.4791
     21 C         141.3045  138.3111  157.4032 C.3     1  UNL1        0.1687
     22 C         140.1971  137.8290  156.5136 C.3     1  UNL1        0.0609
     23 C         140.3482  136.5419  155.7583 C.3     1  UNL1        0.0758
     24 N         141.6068  135.7369  155.8926 N.3     1  UNL1       -0.2737
     25 C         142.7142  136.2190  156.7822 C.3     1  UNL1        0.0758
     26 C         142.5630  137.5061  157.5374 C.3     1  UNL1        0.0609
     27 C         141.7580  134.4497  155.1374 C.3     1  UNL1        0.0575
     28 C         142.2306  134.0750  153.7639 C.3     1  UNL1        0.0160
     29 C         141.9717  132.6294  154.0693 C.3     1  UNL1        0.0028
     30 C         141.4991  133.0041  155.4426 C.3     1  UNL1        0.0160
@<TRIPOS>BOND
     1     7     8    1
     2     8     9   ar
     3     9    10   ar
     4    10    11   ar
     5    11    12   ar
     6    12    13    1
     7    12    14   ar
     8    14    15   ar
     9    15    16   ar
    10    16    17   ar
    11    17    18    2
    12    17    19   ar
    13    19     1    1
    14     1     2   ar
    15     2     3   ar
    16     3     4   ar
    17     4    20    1
    18    20    21    1
    19    21    22    1
    20    22    23    1
    21    23    24    1
    22    24    27    1
    23    27    28    1
    24    28    29    1
    25    29    30    1
    26    24    25    1
    27    25    26    1
    28     4     5   ar
    29     5     6   ar
    30    19     8   ar
    31     6     1   ar
    32    16    10   ar
    33    26    21    1
    34    30    27    1
@<TRIPOS>MOLECULE
*****
 30 34 0 0 0
SMALL
GASTEIGER

@<TRIPOS>ATOM
      1 C         140.5301  138.9503  158.5178 C.ar    1  UNL1        0.0681
      2 C         139.6439  138.2287  157.5462 C.ar    1  UNL1        0.0208
      3 C         140.2364  137.2548  156.5713 C.ar    1  UNL1        0.0384
      4 C         141.7149  137.0024  156.5681 C.ar    1  UNL1        0.1385
      5 C         142.6011  137.7240  157.5397 C.ar    1  UNL1        0.0384
      6 C         142.0086  138.6979  158.5146 C.ar    1  UNL1        0.0208
      7 C         140.1584  141.8214  157.7315 C.3     1  UNL1        0.0723
      8 C         139.7517  141.3598  159.0996 C.ar    1  UNL1        0.1268
      9 N         139.1592  142.3337  160.0744 N.ar    1  UNL1       -0.2318
     10 C         138.7525  141.8721  161.4425 C.ar    1  UNL1        0.0894
     11 C         138.1601  142.8461  162.4174 C.ar    1  UNL1        0.0489
     12 C         137.7534  142.3844  163.7854 C.ar    1  UNL1        0.1416
     13 F         137.1609  143.3584  164.7603 F       1  UNL1       -0.2041
     14 C         137.9393  140.9489  164.1785 C.ar    1  UNL1        0.0299
     15 C         138.5317  139.9749  163.2037 C.ar    1  UNL1        0.0086
     16 C         138.9384  140.4366  161.8357 C.ar    1  UNL1        0.0743
     17 C         139.5309  139.4626  160.8608 C.ar    1  UNL1        0.2670
     18 O         139.7167  138.0270  161.2539 O.2     1  UNL1       -0.2665
     19 N         139.9375  139.9242  159.4928 N.ar    1  UNL1       -0.2626
     20 O         142.3075  136.0285  155.5931 O.3     1  UNL1       -0.4791
     21 C         142.6215  134.6280  156.0292 C.3     1  UNL1        0.1687
     22 C         143.7523  134.3749  156.9818 C.3     1  UNL1        0.0609
     23 C         144.0664  132.9745  157.4178 C.3     1  UNL1        0.0758
     24 N         143.2497  131.8271  156.9012 N.3     1  UNL1       -0.2737
     25 C         142.1190  132.0803  155.9486 C.3     1  UNL1        0.0758
     26 C         141.8049  133.4808  155.5126 C.3     1  UNL1        0.0609
     27 C         143.5638  130.4267  157.3372 C.3     1  UNL1        0.0575
     28 C         143.0811  129.0610  156.9474 C.3     1  UNL1        0.0160
     29 C         144.0080  128.4462  157.9538 C.3     1  UNL1        0.0028
     30 C         144.4906  129.8118  158.3436 C.3     1  UNL1        0.0160
@<TRIPOS>BOND
     1     7     8    1
     2     8     9   ar
     3     9    10   ar
     4    10    11   ar
     5    11    12   ar
     6    12    13    1
     7    12    14   ar
     8    14    15   ar
     9    15    16   ar
    10    16    17   ar
    11    17    18    2
    12    17    19   ar
    13    19     1    1
    14     1     2   ar
    15     2     3   ar
    16     3     4   ar
    17     4    20    1
    18    20    21    1
    19    21    22    1
    20    22    23    1
    21    23    24    1
    22    24    27    1
    23    27    28    1
    24    28    29    1
    25    29    30    1
    26    24    25    1
    27    25    26    1
    28     4     5   ar
    29     5     6   ar
    30    19     8   ar
    31     6     1   ar
    32    16    10   ar
    33    26    21    1
    34    30    27    1
@<TRIPOS>MOLECULE
*****
 30 34 0 0 0
SMALL
GASTEIGER

@<TRIPOS>ATOM
      1 C         141.3959  139.2167  164.6098 C.ar    1  UNL1        0.0681
      2 C         140.4368  138.0815  164.4061 C.ar    1  UNL1        0.0208
      3 C         140.1279  137.6003  163.0194 C.ar    1  UNL1        0.0384
      4 C         140.7781  138.2542  161.8364 C.ar    1  UNL1        0.1385
      5 C         141.7373  139.3894  162.0401 C.ar    1  UNL1        0.0384
      6 C         142.0462  139.8706  163.4268 C.ar    1  UNL1        0.0208
      7 C         143.5757  137.9068  166.2013 C.3     1  UNL1        0.0723
      8 C         142.7947  139.0430  166.7923 C.ar    1  UNL1        0.1268
      9 N         143.1036  139.5242  168.1790 N.ar    1  UNL1       -0.2318
     10 C         142.3226  140.6603  168.7701 C.ar    1  UNL1        0.0894
     11 C         142.6315  141.1415  170.1568 C.ar    1  UNL1        0.0489
     12 C         141.8505  142.2776  170.7477 C.ar    1  UNL1        0.1416
     13 F         142.1594  142.7589  172.1345 F       1  UNL1       -0.2041
     14 C         140.7606  142.9326  169.9520 C.ar    1  UNL1        0.0299
     15 C         140.4517  142.4514  168.5653 C.ar    1  UNL1        0.0086
     16 C         141.2327  141.3153  167.9743 C.ar    1  UNL1        0.0743
     17 C         140.9238  140.8340  166.5875 C.ar    1  UNL1        0.2670
     18 O         139.8339  141.4890  165.7918 O.2     1  UNL1       -0.2665
     19 N         141.7048  139.6979  165.9966 N.ar    1  UNL1       -0.2626
     20 O         140.4693  137.7729  160.4497 O.3     1  UNL1       -0.4791
     21 C         139.6549  138.6268  159.5235 C.3     1  UNL1        0.1687
     22 C         139.9336  138.6115  158.0496 C.3     1  UNL1        0.0609
     23 C         139.1192  139.4654  157.1235 C.3     1  UNL1        0.0758
     24 N         138.0262  140.3345  157.6712 N.3     1  UNL1       -0.2737
     25 C         137.7475  140.3498  159.1450 C.3     1  UNL1        0.0758
     26 C         138.5619  139.4959  160.0711 C.3     1  UNL1        0.0609
     27 C         137.2118  141.1884  156.7450 C.3     1  UNL1        0.0575
     28 C         137.2906  142.6078  156.2665 C.3     1  UNL1        0.0160
     29 C         136.0602  142.3959  155.4353 C.3     1  UNL1        0.0028
     30 C         135.9814  140.9765  155.9138 C.3     1  UNL1        0.0160
@<TRIPOS>BOND
     1     7     8    1
     2     8     9   ar
     3     9    10   ar
     4    10    11   ar
     5    11    12   ar
     6    12    13    1
     7    12    14   ar
     8    14    15   ar
     9    15    16   ar
    10    16    17   ar
    11    17    18    2
    12    17    19   ar
    13    19     1    1
    14     1     2   ar
    15     2     3   ar
    16     3     4   ar
    17     4    20    1
    18    20    21    1
    19    21    22    1
    20    22    23    1
    21    23    24    1
    22    24    27    1
    23    27    28    1
    24    28    29    1
    25    29    30    1
    26    24    25    1
    27    25    26    1
    28     4     5   ar
    29     5     6   ar
    30    19     8   ar
    31     6     1   ar
    32    16    10   ar
    33    26    21    1
    34    30    27    1
