@<TRIPOS>MOLECULE
*****
 28 31 0 0 0
SMALL
GASTEIGER

@<TRIPOS>ATOM
      1 C         140.2744  141.0302  164.5614 C.3     1  UNL1        0.1686
      2 C         139.2411  140.1973  165.2604 C.3     1  UNL1        0.0595
      3 C         138.8699  138.8500  164.7154 C.3     1  UNL1        0.0614
      4 C         138.8192  137.6255  163.8506 C.3     1  UNL1        0.0175
      5 C         139.7981  137.8094  162.7289 C.3     1  UNL1        0.0175
      6 C         140.4536  139.1476  162.9006 C.3     1  UNL1        0.0614
      7 C         140.9365  140.5159  163.3176 C.3     1  UNL1        0.0595
      8 N         139.8800  139.7907  164.1283 N.3     1  UNL1       -0.2713
      9 O         140.6457  142.3776  165.1064 O.3     1  UNL1       -0.4794
     10 C         143.5200  141.9087  165.8262 C.3     1  UNL1        0.0342
     11 C         142.5307  142.2783  166.8914 C.ar    1  UNL1        0.0123
     12 C         142.9786  142.4134  168.3166 C.ar    1  UNL1        0.0032
     13 C         141.9894  142.7830  169.3819 C.ar    1  UNL1        0.0530
     14 C         140.5522  143.0175  169.0219 C.ar    1  UNL1        0.0076
     15 C         140.1044  142.8823  167.5968 C.ar    1  UNL1        0.0367
     16 C         141.0936  142.5127  166.5316 C.ar    1  UNL1        0.1343
     17 C         142.4373  142.9182  170.8070 C.2     1  UNL1        0.2427
     18 N         143.5497  143.8615  171.1574 N.am    1  UNL1       -0.3253
     19 O         141.7728  142.1100  171.8819 O.2     1  UNL1       -0.2704
     20 H         143.9858  144.3919  170.4519 H       1  UNL1        0.1453
     21 H         143.8437  143.9501  172.0928 H       1  UNL1        0.1453
     22 C         140.2512  141.1380  164.6732 C.3     1  UNL1        0.0991
     23 C         139.7655  142.3827  163.9914 C.ar    1  UNL1       -0.0061
     24 C         138.3365  142.8124  164.1437 C.ar    1  UNL1       -0.0029
     25 C         137.8508  144.0569  163.4618 C.ar    1  UNL1       -0.0003
     26 C         138.7942  144.8720  162.6277 C.ar    1  UNL1       -0.0000
     27 C         140.2233  144.4423  162.4753 C.ar    1  UNL1       -0.0003
     28 C         140.7089  143.1976  163.1572 C.ar    1  UNL1       -0.0029
@<TRIPOS>BOND
     1    10    11    1
     2    11    12   ar
     3    12    13   ar
     4    13    17    1
     5    17    18   am
     6    17    19    2
     7    13    14   ar
     8    14    15   ar
     9    15    16   ar
    10    16     9    1
    11     1     9    1
    12     1     2    1
    13     3     2    1
    14     3     4    1
    15     4     5    1
    16     6     5    1
    17     6     7    1
    18     6     8    1
    19     8    22    1
    20    22    23    1
    21    23    24   ar
    22    24    25   ar
    23    25    26   ar
    24    26    27   ar
    25    27    28   ar
    26    16    11   ar
    27     7     1    1
    28    28    23   ar
    29     8     3    1
    30    18    20    1
    31    18    21    1
@<TRIPOS>MOLECULE
*****
 28 31 0 0 0
SMALL
GASTEIGER

@<TRIPOS>ATOM
      1 C         142.6587  140.3500  164.6343 C.3     1  UNL1        0.1686
      2 C         144.0531  139.8160  164.4909 C.3     1  UNL1        0.0595
      3 C         145.1242  140.6702  163.8801 C.3     1  UNL1        0.0614
      4 C         145.8365  141.8255  163.2415 C.3     1  UNL1        0.0175
      5 C         144.8448  142.9353  163.0545 C.3     1  UNL1        0.0175
      6 C         143.5196  142.4659  163.5776 C.3     1  UNL1        0.0614
      7 C         142.3355  141.7382  164.1670 C.3     1  UNL1        0.0595
      8 N         143.6923  141.0659  164.0879 N.3     1  UNL1       -0.2713
      9 O         141.5875  139.4958  165.2451 O.3     1  UNL1       -0.4794
     10 C         138.7397  139.9338  166.0802 C.3     1  UNL1        0.0342
     11 C         139.8227  139.8643  167.1157 C.ar    1  UNL1        0.0123
     12 C         139.4817  140.0138  168.5688 C.ar    1  UNL1        0.0032
     13 C         140.5647  139.9443  169.6043 C.ar    1  UNL1        0.0530
     14 C         141.9887  139.7253  169.1867 C.ar    1  UNL1        0.0076
     15 C         142.3296  139.5758  167.7337 C.ar    1  UNL1        0.0367
     16 C         141.2466  139.6453  166.6982 C.ar    1  UNL1        0.1343
     17 C         140.2238  140.0938  171.0574 C.2     1  UNL1        0.2427
     18 N         139.4642  139.0110  171.7648 N.am    1  UNL1       -0.3253
     19 O         140.6424  141.3262  171.8030 O.2     1  UNL1       -0.2704
     20 H         139.1894  138.2022  171.2754 H       1  UNL1        0.1453
     21 H         139.2404  139.1092  172.7185 H       1  UNL1        0.1453
     22 C         142.6212  140.2117  164.6986 C.3     1  UNL1        0.0991
     23 C         141.6765  139.4493  163.8176 C.ar    1  UNL1       -0.0061
     24 C         140.6226  140.1794  163.0389 C.ar    1  UNL1       -0.0029
     25 C         139.6779  139.4171  162.1579 C.ar    1  UNL1       -0.0003
     26 C         139.7871  137.9246  162.0555 C.ar    1  UNL1       -0.0000
     27 C         140.8410  137.1944  162.8342 C.ar    1  UNL1       -0.0003
     28 C         141.7856  137.9569  163.7152 C.ar    1  UNL1       -0.0029
@<TRIPOS>BOND
     1    10    11    1
     2    11    12   ar
     3    12    13   ar
     4    13    17    1
     5    17    18   am
     6    17    19    2
     7    13    14   ar
     8    14    15   ar
     9    15    16   ar
    10    16     9    1
    11     1     9    1
    12     1     2    1
    13     3     2    1
    14     3     4    1
    15     4     5    1
    16     6     5    1
    17     6     7    1
    18     6     8    1
    19     8    22    1
    20    22    23    1
    21    23    24   ar
    22    24    25   ar
    23    25    26   ar
    24    26    27   ar
    25    27    28   ar
    26    16    11   ar
    27     7     1    1
    28    28    23   ar
    29     8     3    1
    30    18    20    1
    31    18    21    1
@<TRIPOS>MOLECULE
*****
 28 31 0 0 0
SMALL
GASTEIGER

@<TRIPOS>ATOM
      1 C         141.5567  141.9672  164.4450 C.3     1  UNL1        0.1686
      2 C         142.0301  140.6859  163.8253 C.3     1  UNL1        0.0595
      3 C         143.3136  140.6574  163.0495 C.3     1  UNL1        0.0614
      4 C         144.5944  141.0823  162.3945 C.3     1  UNL1        0.0175
      5 C         144.7888  142.5453  162.6624 C.3     1  UNL1        0.0175
      6 C         143.6282  143.0246  163.4829 C.3     1  UNL1        0.0614
      7 C         142.3669  143.2200  164.2891 C.3     1  UNL1        0.0595
      8 N         142.7165  141.8578  163.7222 N.3     1  UNL1       -0.2713
      9 O         140.2731  141.9958  165.2208 O.3     1  UNL1       -0.4794
     10 C         139.0565  139.3964  166.0939 C.3     1  UNL1        0.0342
     11 C         139.6579  140.3217  167.1098 C.ar    1  UNL1        0.0123
     12 C         139.6509  139.9473  168.5624 C.ar    1  UNL1        0.0032
     13 C         140.2523  140.8726  169.5783 C.ar    1  UNL1        0.0530
     14 C         140.8606  142.1723  169.1417 C.ar    1  UNL1        0.0076
     15 C         140.8676  142.5467  167.6893 C.ar    1  UNL1        0.0367
     16 C         140.2662  141.6214  166.6733 C.ar    1  UNL1        0.1343
     17 C         140.2454  140.4982  171.0308 C.2     1  UNL1        0.2427
     18 N         139.7579  139.1442  171.4540 N.am    1  UNL1       -0.3253
     19 O         140.7259  141.4777  172.0601 O.2     1  UNL1       -0.2704
     20 H         139.4425  138.5013  170.7784 H       1  UNL1        0.1453
     21 H         139.7533  138.8985  172.4073 H       1  UNL1        0.1453
     22 C         141.4329  141.8863  164.4979 C.3     1  UNL1        0.0991
     23 C         140.2523  142.6441  163.9669 C.ar    1  UNL1       -0.0061
     24 C         139.2825  141.9698  163.0423 C.ar    1  UNL1       -0.0029
     25 C         138.1020  142.7275  162.5113 C.ar    1  UNL1       -0.0003
     26 C         137.8911  144.1595  162.9048 C.ar    1  UNL1       -0.0000
     27 C         138.8610  144.8338  163.8294 C.ar    1  UNL1       -0.0003
     28 C         140.0416  144.0760  164.3604 C.ar    1  UNL1       -0.0029
@<TRIPOS>BOND
     1    10    11    1
     2    11    12   ar
     3    12    13   ar
     4    13    17    1
     5    17    18   am
     6    17    19    2
     7    13    14   ar
     8    14    15   ar
     9    15    16   ar
    10    16     9    1
    11     1     9    1
    12     1     2    1
    13     3     2    1
    14     3     4    1
    15     4     5    1
    16     6     5    1
    17     6     7    1
    18     6     8    1
    19     8    22    1
    20    22    23    1
    21    23    24   ar
    22    24    25   ar
    23    25    26   ar
    24    26    27   ar
    25    27    28   ar
    26    16    11   ar
    27     7     1    1
    28    28    23   ar
    29     8     3    1
    30    18    20    1
    31    18    21    1
@<TRIPOS>MOLECULE
*****
 28 31 0 0 0
SMALL
GASTEIGER

@<TRIPOS>ATOM
      1 C         139.7636  141.6211  164.5114 C.3     1  UNL1        0.1686
      2 C         138.3521  142.0993  164.6821 C.3     1  UNL1        0.0595
      3 C         137.8517  143.2622  163.8776 C.3     1  UNL1        0.0614
      4 C         137.7902  144.4050  162.9080 C.3     1  UNL1        0.0175
      5 C         139.1311  144.5243  162.2464 C.3     1  UNL1        0.0175
      6 C         140.0214  143.4552  162.8071 C.3     1  UNL1        0.0614
      7 C         140.6746  142.3059  163.5361 C.3     1  UNL1        0.0595
      8 N         139.2307  142.6751  163.8152 N.3     1  UNL1       -0.2713
      9 O         140.2640  140.4582  165.3159 O.3     1  UNL1       -0.4794
     10 C         138.4460  139.2483  167.3727 C.3     1  UNL1        0.0342
     11 C         139.6549  140.0247  167.8040 C.ar    1  UNL1        0.0123
     12 C         139.9547  140.1961  169.2637 C.ar    1  UNL1        0.0032
     13 C         141.1635  140.9725  169.6949 C.ar    1  UNL1        0.0530
     14 C         142.0725  141.5775  168.6664 C.ar    1  UNL1        0.0076
     15 C         141.7727  141.4060  167.2068 C.ar    1  UNL1        0.0367
     16 C         140.5639  140.6296  166.7756 C.ar    1  UNL1        0.1343
     17 C         141.4633  141.1440  171.1546 C.2     1  UNL1        0.2427
     18 N         142.6119  140.4061  171.7761 N.am    1  UNL1       -0.3253
     19 O         140.6145  142.0533  171.9929 O.2     1  UNL1       -0.2704
     20 H         143.1690  139.8093  171.2260 H       1  UNL1        0.1453
     21 H         142.8086  140.5186  172.7342 H       1  UNL1        0.1453
     22 C         139.7311  141.5122  164.6197 C.3     1  UNL1        0.0991
     23 C         139.9811  140.1916  163.9537 C.ar    1  UNL1       -0.0061
     24 C         138.8418  139.2465  163.7110 C.ar    1  UNL1       -0.0029
     25 C         139.0918  137.9260  163.0451 C.ar    1  UNL1       -0.0003
     26 C         140.4810  137.5504  162.6218 C.ar    1  UNL1       -0.0000
     27 C         141.6203  138.4956  162.8645 C.ar    1  UNL1       -0.0003
     28 C         141.3702  139.8162  163.5305 C.ar    1  UNL1       -0.0029
@<TRIPOS>BOND
     1    10    11    1
     2    11    12   ar
     3    12    13   ar
     4    13    17    1
     5    17    18   am
     6    17    19    2
     7    13    14   ar
     8    14    15   ar
     9    15    16   ar
    10    16     9    1
    11     1     9    1
    12     1     2    1
    13     3     2    1
    14     3     4    1
    15     4     5    1
    16     6     5    1
    17     6     7    1
    18     6     8    1
    19     8    22    1
    20    22    23    1
    21    23    24   ar
    22    24    25   ar
    23    25    26   ar
    24    26    27   ar
    25    27    28   ar
    26    16    11   ar
    27     7     1    1
    28    28    23   ar
    29     8     3    1
    30    18    20    1
    31    18    21    1
@<TRIPOS>MOLECULE
*****
 28 31 0 0 0
SMALL
GASTEIGER

@<TRIPOS>ATOM
      1 C         139.5459  141.4968  164.6726 C.3     1  UNL1        0.1686
      2 C         140.4795  142.6507  164.4563 C.3     1  UNL1        0.0595
      3 C         139.9743  143.9172  163.8312 C.3     1  UNL1        0.0614
      4 C         139.0706  144.9360  163.2025 C.3     1  UNL1        0.0175
      5 C         137.7009  144.3348  163.0915 C.3     1  UNL1        0.0175
      6 C         137.7580  142.9445  163.6516 C.3     1  UNL1        0.0614
      7 C         138.1070  141.6095  164.2640 C.3     1  UNL1        0.0595
      8 N         139.1631  142.6864  164.1088 N.3     1  UNL1       -0.2713
      9 O         140.0511  140.2302  165.2977 O.3     1  UNL1       -0.4794
     10 C         143.0202  140.0683  165.6945 C.3     1  UNL1        0.0342
     11 C         142.1095  140.1738  166.8817 C.ar    1  UNL1        0.0123
     12 C         142.6834  140.1983  168.2674 C.ar    1  UNL1        0.0032
     13 C         141.7727  140.3037  169.4546 C.ar    1  UNL1        0.0530
     14 C         140.2881  140.3846  169.2561 C.ar    1  UNL1        0.0076
     15 C         139.7143  140.3601  167.8706 C.ar    1  UNL1        0.0367
     16 C         140.6250  140.2547  166.6834 C.ar    1  UNL1        0.1343
     17 C         142.3466  140.3282  170.8403 C.2     1  UNL1        0.2427
     18 N         143.5827  139.5387  171.1542 N.am    1  UNL1       -0.3253
     19 O         141.6843  141.1422  171.9121 O.2     1  UNL1       -0.2704
     20 H         144.0174  139.0044  170.4508 H       1  UNL1        0.1453
     21 H         143.9594  139.5547  172.0637 H       1  UNL1        0.1453
     22 C         139.6683  141.4199  164.7338 C.3     1  UNL1        0.0991
     23 C         139.7561  140.1641  163.9182 C.ar    1  UNL1       -0.0061
     24 C         138.8408  139.0128  164.2130 C.ar    1  UNL1       -0.0029
     25 C         138.9285  137.7571  163.3974 C.ar    1  UNL1       -0.0003
     26 C         139.9315  137.6525  162.2870 C.ar    1  UNL1       -0.0000
     27 C         140.8469  138.8038  161.9921 C.ar    1  UNL1       -0.0003
     28 C         140.7591  140.0596  162.8078 C.ar    1  UNL1       -0.0029
@<TRIPOS>BOND
     1    10    11    1
     2    11    12   ar
     3    12    13   ar
     4    13    17    1
     5    17    18   am
     6    17    19    2
     7    13    14   ar
     8    14    15   ar
     9    15    16   ar
    10    16     9    1
    11     1     9    1
    12     1     2    1
    13     3     2    1
    14     3     4    1
    15     4     5    1
    16     6     5    1
    17     6     7    1
    18     6     8    1
    19     8    22    1
    20    22    23    1
    21    23    24   ar
    22    24    25   ar
    23    25    26   ar
    24    26    27   ar
    25    27    28   ar
    26    16    11   ar
    27     7     1    1
    28    28    23   ar
    29     8     3    1
    30    18    20    1
    31    18    21    1
@<TRIPOS>MOLECULE
*****
 28 31 0 0 0
SMALL
GASTEIGER

@<TRIPOS>ATOM
      1 C         141.0074  141.2365  166.5033 C.3     1  UNL1        0.1686
      2 C         140.5449  142.3370  167.4117 C.3     1  UNL1        0.0595
      3 C         141.2027  142.5351  168.7451 C.3     1  UNL1        0.0614
      4 C         142.1107  142.3663  169.9270 C.3     1  UNL1        0.0175
      5 C         143.0245  141.2100  169.6480 C.3     1  UNL1        0.0175
      6 C         142.6814  140.6642  168.2936 C.3     1  UNL1        0.0614
      7 C         142.1278  140.3342  166.9284 C.3     1  UNL1        0.0595
      8 N         141.5554  141.4832  167.7356 N.3     1  UNL1       -0.2713
      9 O         140.3496  141.0384  165.1698 O.3     1  UNL1       -0.4794
     10 C         137.7984  142.4452  164.4545 C.3     1  UNL1        0.0342
     11 C         139.0860  142.8472  163.7983 C.ar    1  UNL1        0.0123
     12 C         139.0980  143.9526  162.7845 C.ar    1  UNL1        0.0032
     13 C         140.3856  144.3546  162.1283 C.ar    1  UNL1        0.0530
     14 C         141.6612  143.6511  162.4860 C.ar    1  UNL1        0.0076
     15 C         141.6492  142.5458  163.4998 C.ar    1  UNL1        0.0367
     16 C         140.3616  142.1438  164.1560 C.ar    1  UNL1        0.1343
     17 C         140.3976  145.4600  161.1144 C.2     1  UNL1        0.2427
     18 N         141.5162  145.5531  160.1195 N.am    1  UNL1       -0.3253
     19 O         139.2909  146.4724  161.0955 O.2     1  UNL1       -0.2704
     20 H         142.2426  144.8887  160.1319 H       1  UNL1        0.1453
     21 H         141.5241  146.2787  159.4541 H       1  UNL1        0.1453
     22 C         140.8976  141.2851  166.4022 C.3     1  UNL1        0.0991
     23 C         140.1297  140.0268  166.1242 C.ar    1  UNL1       -0.0061
     24 C         138.8109  139.7886  166.7979 C.ar    1  UNL1       -0.0029
     25 C         138.0431  138.5305  166.5199 C.ar    1  UNL1       -0.0003
     26 C         138.5941  137.5103  165.5682 C.ar    1  UNL1       -0.0000
     27 C         139.9130  137.7485  164.8945 C.ar    1  UNL1       -0.0003
     28 C         140.6808  139.0068  165.1725 C.ar    1  UNL1       -0.0029
@<TRIPOS>BOND
     1    10    11    1
     2    11    12   ar
     3    12    13   ar
     4    13    17    1
     5    17    18   am
     6    17    19    2
     7    13    14   ar
     8    14    15   ar
     9    15    16   ar
    10    16     9    1
    11     1     9    1
    12     1     2    1
    13     3     2    1
    14     3     4    1
    15     4     5    1
    16     6     5    1
    17     6     7    1
    18     6     8    1
    19     8    22    1
    20    22    23    1
    21    23    24   ar
    22    24    25   ar
    23    25    26   ar
    24    26    27   ar
    25    27    28   ar
    26    16    11   ar
    27     7     1    1
    28    28    23   ar
    29     8     3    1
    30    18    20    1
    31    18    21    1
@<TRIPOS>MOLECULE
*****
 28 31 0 0 0
SMALL
GASTEIGER

@<TRIPOS>ATOM
      1 C         141.1337  142.2750  164.3905 C.3     1  UNL1        0.1686
      2 C         140.6376  143.6237  164.8205 C.3     1  UNL1        0.0595
      3 C         139.3554  144.1646  164.2607 C.3     1  UNL1        0.0614
      4 C         138.0843  144.2944  163.4750 C.3     1  UNL1        0.0175
      5 C         137.9169  143.0494  162.6553 C.3     1  UNL1        0.0175
      6 C         139.0846  142.1502  162.9344 C.3     1  UNL1        0.0614
      7 C         140.3476  141.4673  163.4007 C.3     1  UNL1        0.0595
      8 N         139.9737  142.8394  163.9266 N.3     1  UNL1       -0.2713
      9 O         142.4159  141.7340  164.9503 O.3     1  UNL1       -0.4794
     10 C         141.7656  138.9616  165.8939 C.3     1  UNL1        0.0342
     11 C         142.1888  140.0095  166.8802 C.ar    1  UNL1        0.0123
     12 C         142.2869  139.6712  168.3382 C.ar    1  UNL1        0.0032
     13 C         142.7101  140.7191  169.3245 C.ar    1  UNL1        0.0530
     14 C         143.0353  142.1054  168.8526 C.ar    1  UNL1        0.0076
     15 C         142.9372  142.4436  167.3946 C.ar    1  UNL1        0.0367
     16 C         142.5140  141.3957  166.4084 C.ar    1  UNL1        0.1343
     17 C         142.8082  140.3808  170.7825 C.2     1  UNL1        0.2427
     18 N         143.9049  139.4821  171.2719 N.am    1  UNL1       -0.3253
     19 O         141.8095  140.9413  171.7513 O.2     1  UNL1       -0.2704
     20 H         144.5604  139.1142  170.6360 H       1  UNL1        0.1453
     21 H         143.9692  139.2601  172.2288 H       1  UNL1        0.1453
     22 C         141.2558  142.2985  164.4864 C.3     1  UNL1        0.0991
     23 C         142.4868  142.2507  163.6306 C.ar    1  UNL1       -0.0061
     24 C         142.9216  140.9544  163.0137 C.ar    1  UNL1       -0.0029
     25 C         144.1525  140.9067  162.1580 C.ar    1  UNL1       -0.0003
     26 C         144.9487  142.1552  161.9189 C.ar    1  UNL1       -0.0000
     27 C         144.5139  143.4516  162.5358 C.ar    1  UNL1       -0.0003
     28 C         143.2829  143.4993  163.3916 C.ar    1  UNL1       -0.0029
@<TRIPOS>BOND
     1    10    11    1
     2    11    12   ar
     3    12    13   ar
     4    13    17    1
     5    17    18   am
     6    17    19    2
     7    13    14   ar
     8    14    15   ar
     9    15    16   ar
    10    16     9    1
    11     1     9    1
    12     1     2    1
    13     3     2    1
    14     3     4    1
    15     4     5    1
    16     6     5    1
    17     6     7    1
    18     6     8    1
    19     8    22    1
    20    22    23    1
    21    23    24   ar
    22    24    25   ar
    23    25    26   ar
    24    26    27   ar
    25    27    28   ar
    26    16    11   ar
    27     7     1    1
    28    28    23   ar
    29     8     3    1
    30    18    20    1
    31    18    21    1
@<TRIPOS>MOLECULE
*****
 28 31 0 0 0
SMALL
GASTEIGER

@<TRIPOS>ATOM
      1 C         140.9110  139.4873  164.7871 C.3     1  UNL1        0.1686
      2 C         139.8478  140.4449  164.3371 C.3     1  UNL1        0.0595
      3 C         138.8270  140.0117  163.3271 C.3     1  UNL1        0.0614
      4 C         138.0534  139.1807  162.3468 C.3     1  UNL1        0.0175
      5 C         138.6917  137.8248  162.2832 C.3     1  UNL1        0.0175
      6 C         139.8598  137.8178  163.2242 C.3     1  UNL1        0.0614
      7 C         140.9534  138.0964  164.2270 C.3     1  UNL1        0.0595
      8 N         139.9435  139.1694  163.8693 N.3     1  UNL1       -0.2713
      9 O         141.9319  139.9205  165.7972 O.3     1  UNL1       -0.4794
     10 C         143.3183  142.4324  166.6735 C.3     1  UNL1        0.0342
     11 C         142.1899  141.8748  167.4894 C.ar    1  UNL1        0.0123
     12 C         141.7546  142.5733  168.7435 C.ar    1  UNL1        0.0032
     13 C         140.6262  142.0158  169.5594 C.ar    1  UNL1        0.0530
     14 C         139.9330  140.7598  169.1213 C.ar    1  UNL1        0.0076
     15 C         140.3682  140.0614  167.8672 C.ar    1  UNL1        0.0367
     16 C         141.4967  140.6189  167.0513 C.ar    1  UNL1        0.1343
     17 C         140.1909  142.7143  170.8135 C.2     1  UNL1        0.2427
     18 N         139.5457  144.0660  170.7338 N.am    1  UNL1       -0.3253
     19 O         140.4009  142.0609  172.1473 O.2     1  UNL1       -0.2704
     20 H         139.4079  144.4949  169.8584 H       1  UNL1        0.1453
     21 H         139.2601  144.5244  171.5569 H       1  UNL1        0.1453
     22 C         140.9643  139.6026  164.8794 C.3     1  UNL1        0.0991
     23 C         142.3709  139.8934  164.4470 C.ar    1  UNL1       -0.0061
     24 C         143.4989  139.0346  164.9371 C.ar    1  UNL1       -0.0029
     25 C         144.9054  139.3254  164.5047 C.ar    1  UNL1       -0.0003
     26 C         145.1840  140.4749  163.5822 C.ar    1  UNL1       -0.0000
     27 C         144.0559  141.3337  163.0920 C.ar    1  UNL1       -0.0003
     28 C         142.6494  141.0428  163.5245 C.ar    1  UNL1       -0.0029
@<TRIPOS>BOND
     1    10    11    1
     2    11    12   ar
     3    12    13   ar
     4    13    17    1
     5    17    18   am
     6    17    19    2
     7    13    14   ar
     8    14    15   ar
     9    15    16   ar
    10    16     9    1
    11     1     9    1
    12     1     2    1
    13     3     2    1
    14     3     4    1
    15     4     5    1
    16     6     5    1
    17     6     7    1
    18     6     8    1
    19     8    22    1
    20    22    23    1
    21    23    24   ar
    22    24    25   ar
    23    25    26   ar
    24    26    27   ar
    25    27    28   ar
    26    16    11   ar
    27     7     1    1
    28    28    23   ar
    29     8     3    1
    30    18    20    1
    31    18    21    1
@<TRIPOS>MOLECULE
*****
 28 31 0 0 0
SMALL
GASTEIGER

@<TRIPOS>ATOM
      1 C         141.2501  142.7142  164.4585 C.3     1  UNL1        0.1686
      2 C         141.4418  144.1937  164.3023 C.3     1  UNL1        0.0595
      3 C         142.6655  144.7230  163.6149 C.3     1  UNL1        0.0614
      4 C         143.9791  144.7929  162.8942 C.3     1  UNL1        0.0175
      5 C         144.4642  143.3902  162.6777 C.3     1  UNL1        0.0175
      6 C         143.4504  142.4533  163.2645 C.3     1  UNL1        0.0614
      7 C         142.2821  141.7640  163.9272 C.3     1  UNL1        0.0595
      8 N         142.3387  143.2770  163.8438 N.3     1  UNL1       -0.2713
      9 O         140.0264  142.1849  165.1459 O.3     1  UNL1       -0.4794
     10 C         139.0905  139.4943  166.0862 C.3     1  UNL1        0.0342
     11 C         139.6074  140.4964  167.0754 C.ar    1  UNL1        0.0123
     12 C         139.6564  140.1531  168.5348 C.ar    1  UNL1        0.0032
     13 C         140.1733  141.1552  169.5240 C.ar    1  UNL1        0.0530
     14 C         140.6413  142.5005  169.0538 C.ar    1  UNL1        0.0076
     15 C         140.5923  142.8437  167.5945 C.ar    1  UNL1        0.0367
     16 C         140.0754  141.8416  166.6053 C.ar    1  UNL1        0.1343
     17 C         140.2223  140.8120  170.9834 C.2     1  UNL1        0.2427
     18 N         139.9717  139.4025  171.4312 N.am    1  UNL1       -0.3253
     19 O         140.5218  141.8782  171.9950 O.2     1  UNL1       -0.2704
     20 H         139.7751  138.7026  170.7672 H       1  UNL1        0.1453
     21 H         140.0038  139.1772  172.3890 H       1  UNL1        0.1453
     22 C         141.1150  142.7477  164.5312 C.3     1  UNL1        0.0991
     23 C         139.9719  142.2125  163.7208 C.ar    1  UNL1       -0.0061
     24 C         138.6872  142.9823  163.6363 C.ar    1  UNL1       -0.0029
     25 C         137.5441  142.4472  162.8259 C.ar    1  UNL1       -0.0003
     26 C         137.6856  141.1422  162.1000 C.ar    1  UNL1       -0.0000
     27 C         138.9702  140.3723  162.1845 C.ar    1  UNL1       -0.0003
     28 C         140.1133  140.9076  162.9949 C.ar    1  UNL1       -0.0029
@<TRIPOS>BOND
     1    10    11    1
     2    11    12   ar
     3    12    13   ar
     4    13    17    1
     5    17    18   am
     6    17    19    2
     7    13    14   ar
     8    14    15   ar
     9    15    16   ar
    10    16     9    1
    11     1     9    1
    12     1     2    1
    13     3     2    1
    14     3     4    1
    15     4     5    1
    16     6     5    1
    17     6     7    1
    18     6     8    1
    19     8    22    1
    20    22    23    1
    21    23    24   ar
    22    24    25   ar
    23    25    26   ar
    24    26    27   ar
    25    27    28   ar
    26    16    11   ar
    27     7     1    1
    28    28    23   ar
    29     8     3    1
    30    18    20    1
    31    18    21    1
