@<TRIPOS>MOLECULE
*****
 24 27 0 0 0
SMALL
GASTEIGER

@<TRIPOS>ATOM
      1 N         139.9801  142.6754  165.6099 N.ar    1  UNL1       -0.3052
      2 C         140.7302  142.8374  166.8987 C.ar    1  UNL1        0.0757
      3 C         140.5357  141.5897  167.7082 C.ar    1  UNL1       -0.0035
      4 C         139.6653  140.6565  166.9197 C.ar    1  UNL1        0.0144
      5 C         139.1411  139.2825  167.2150 C.ar    1  UNL1        0.0126
      6 C         138.2735  138.5795  166.2136 C.ar    1  UNL1        0.0578
      7 CL        137.7493  137.2054  166.5089 Cl      1  UNL1       -0.0822
      8 C         137.9301  139.2505  164.9167 C.ar    1  UNL1        0.0129
      9 C         138.4543  140.6245  164.6214 C.ar    1  UNL1        0.0184
     10 C         139.3219  141.3275  165.6228 C.ar    1  UNL1        0.0638
     11 F         139.6668  146.7103  161.1802 F       1  UNL1       -0.2042
     12 C         139.7451  145.7016  162.2876 C.ar    1  UNL1        0.1402
     13 C         141.0669  145.3857  162.9223 C.ar    1  UNL1        0.0311
     14 C         141.1453  144.3770  164.0297 C.ar    1  UNL1        0.0198
     15 C         139.9018  143.6841  164.5025 C.ar    1  UNL1        0.0642
     16 C         138.5798  144.0000  163.8678 C.ar    1  UNL1        0.0198
     17 C         138.5015  145.0087  162.7603 C.ar    1  UNL1        0.0311
     18 C         141.1106  141.3220  169.0675 C.3     1  UNL1        0.0266
     19 C         140.5209  141.9876  170.2756 C.3     1  UNL1        0.0215
     20 C         141.0958  141.7199  171.6350 C.3     1  UNL1        0.0689
     21 N         142.2604  140.7868  171.7863 N.3     1  UNL1       -0.2974
     22 C         142.8501  140.1213  170.5783 C.3     1  UNL1        0.0689
     23 C         142.2752  140.3889  169.2189 C.3     1  UNL1        0.0215
     24 H         141.9613  140.0422  172.4161 H       1  UNL1        0.1232
@<TRIPOS>BOND
     1    11    12    1
     2    12    13   ar
     3    13    14   ar
     4    14    15   ar
     5    15     1    1
     6     1     2   ar
     7     2     3   ar
     8     3    18    1
     9    18    19    1
    10    19    20    1
    11    20    21    1
    12    21    22    1
    13    22    23    1
    14     3     4   ar
    15     4     5   ar
    16     5     6   ar
    17     6     7    1
    18     6     8   ar
    19     8     9   ar
    20     9    10   ar
    21    15    16   ar
    22    16    17   ar
    23    17    12   ar
    24    10     1   ar
    25    23    18    1
    26    10     4   ar
    27    21    24    1
@<TRIPOS>MOLECULE
*****
 24 27 0 0 0
SMALL
GASTEIGER

@<TRIPOS>ATOM
      1 N         140.1611  142.7832  164.9176 N.ar    1  UNL1       -0.3052
      2 C         140.8550  143.1967  166.1815 C.ar    1  UNL1        0.0757
      3 C         140.5767  142.1556  167.2249 C.ar    1  UNL1       -0.0035
      4 C         139.7109  141.0987  166.6059 C.ar    1  UNL1        0.0144
      5 C         139.1233  139.8332  167.1564 C.ar    1  UNL1        0.0126
      6 C         138.2787  138.9556  166.2809 C.ar    1  UNL1        0.0578
      7 CL        137.6910  137.6900  166.8315 Cl      1  UNL1       -0.0822
      8 C         138.0219  139.3434  164.8549 C.ar    1  UNL1        0.0129
      9 C         138.6095  140.6089  164.3043 C.ar    1  UNL1        0.0184
     10 C         139.4541  141.4865  165.1798 C.ar    1  UNL1        0.0638
     11 F         140.2060  145.7881  159.7244 F       1  UNL1       -0.2042
     12 C         140.1948  145.0369  161.0227 C.ar    1  UNL1        0.1402
     13 C         140.8846  143.7091  161.1269 C.ar    1  UNL1        0.0311
     14 C         140.8734  142.9579  162.4252 C.ar    1  UNL1        0.0198
     15 C         140.1724  143.5344  163.6193 C.ar    1  UNL1        0.0642
     16 C         139.4825  144.8623  163.5151 C.ar    1  UNL1        0.0198
     17 C         139.4937  145.6136  162.2169 C.ar    1  UNL1        0.0311
     18 C         141.0765  142.1691  168.6391 C.3     1  UNL1        0.0266
     19 C         142.5376  142.3654  168.9164 C.3     1  UNL1        0.0215
     20 C         143.0374  142.3788  170.3307 C.3     1  UNL1        0.0689
     21 N         142.0762  142.1960  171.4676 N.3     1  UNL1       -0.2974
     22 C         140.6152  141.9998  171.1903 C.3     1  UNL1        0.0689
     23 C         140.1154  141.9863  169.7761 C.3     1  UNL1        0.0215
     24 H         142.1554  143.0252  172.0563 H       1  UNL1        0.1232
@<TRIPOS>BOND
     1    11    12    1
     2    12    13   ar
     3    13    14   ar
     4    14    15   ar
     5    15     1    1
     6     1     2   ar
     7     2     3   ar
     8     3    18    1
     9    18    19    1
    10    19    20    1
    11    20    21    1
    12    21    22    1
    13    22    23    1
    14     3     4   ar
    15     4     5   ar
    16     5     6   ar
    17     6     7    1
    18     6     8   ar
    19     8     9   ar
    20     9    10   ar
    21    15    16   ar
    22    16    17   ar
    23    17    12   ar
    24    10     1   ar
    25    23    18    1
    26    10     4   ar
    27    21    24    1
@<TRIPOS>MOLECULE
*****
 24 27 0 0 0
SMALL
GASTEIGER

@<TRIPOS>ATOM
      1 N         141.8754  140.6723  164.4118 N.ar    1  UNL1       -0.3052
      2 C         142.3634  141.5994  165.4853 C.ar    1  UNL1        0.0757
      3 C         141.4764  141.4294  166.6829 C.ar    1  UNL1       -0.0035
      4 C         140.4402  140.3973  166.3496 C.ar    1  UNL1        0.0144
      5 C         139.3040  139.8232  167.1429 C.ar    1  UNL1        0.0126
      6 C         138.4144  138.7811  166.5325 C.ar    1  UNL1        0.0578
      7 CL        137.2781  138.2069  167.3258 Cl      1  UNL1       -0.0822
      8 C         138.6610  138.3132  165.1288 C.ar    1  UNL1        0.0129
      9 C         139.7972  138.8873  164.3356 C.ar    1  UNL1        0.0184
     10 C         140.6868  139.9294  164.9460 C.ar    1  UNL1        0.0638
     11 F         144.2592  140.0457  158.9414 F       1  UNL1       -0.2042
     12 C         143.6632  140.2024  160.3090 C.ar    1  UNL1        0.1402
     13 C         144.0272  139.2401  161.4005 C.ar    1  UNL1        0.0311
     14 C         143.4313  139.3967  162.7680 C.ar    1  UNL1        0.0198
     15 C         142.4713  140.5157  163.0442 C.ar    1  UNL1        0.0642
     16 C         142.1073  141.4781  161.9527 C.ar    1  UNL1        0.0198
     17 C         142.7032  141.3214  160.5851 C.ar    1  UNL1        0.0311
     18 C         141.6033  142.1628  167.9853 C.3     1  UNL1        0.0266
     19 C         140.4675  143.0058  168.4851 C.3     1  UNL1        0.0215
     20 C         140.5944  143.7391  169.7874 C.3     1  UNL1        0.0689
     21 N         141.8569  143.6296  170.5900 N.3     1  UNL1       -0.2974
     22 C         142.9926  142.7866  170.0902 C.3     1  UNL1        0.0689
     23 C         142.8657  142.0533  168.7878 C.3     1  UNL1        0.0215
     24 H         141.5942  143.2583  171.5029 H       1  UNL1        0.1232
@<TRIPOS>BOND
     1    11    12    1
     2    12    13   ar
     3    13    14   ar
     4    14    15   ar
     5    15     1    1
     6     1     2   ar
     7     2     3   ar
     8     3    18    1
     9    18    19    1
    10    19    20    1
    11    20    21    1
    12    21    22    1
    13    22    23    1
    14     3     4   ar
    15     4     5   ar
    16     5     6   ar
    17     6     7    1
    18     6     8   ar
    19     8     9   ar
    20     9    10   ar
    21    15    16   ar
    22    16    17   ar
    23    17    12   ar
    24    10     1   ar
    25    23    18    1
    26    10     4   ar
    27    21    24    1
@<TRIPOS>MOLECULE
*****
 24 27 0 0 0
SMALL
GASTEIGER

@<TRIPOS>ATOM
      1 N         141.8114  140.3506  164.8559 N.ar    1  UNL1       -0.3052
      2 C         142.2802  140.1611  166.2681 C.ar    1  UNL1        0.0757
      3 C         141.6651  141.2399  167.1093 C.ar    1  UNL1       -0.0035
      4 C         140.8162  142.0962  166.2171 C.ar    1  UNL1        0.0144
      5 C         139.9725  143.3054  166.4929 C.ar    1  UNL1        0.0126
      6 C         139.2193  143.9649  165.3759 C.ar    1  UNL1        0.0578
      7 CL        138.3756  145.1741  165.6517 Cl      1  UNL1       -0.0822
      8 C         139.3096  143.4152  163.9832 C.ar    1  UNL1        0.0129
      9 C         140.1533  142.2060  163.7074 C.ar    1  UNL1        0.0184
     10 C         140.9066  141.5465  164.8243 C.ar    1  UNL1        0.0638
     11 F         143.2949  136.9259  160.1578 F       1  UNL1       -0.2042
     12 C         142.9240  137.7821  161.3323 C.ar    1  UNL1        0.1402
     13 C         141.5120  137.7905  161.8382 C.ar    1  UNL1        0.0311
     14 C         141.1411  138.6466  163.0127 C.ar    1  UNL1        0.0198
     15 C         142.1822  139.4944  163.6814 C.ar    1  UNL1        0.0642
     16 C         143.5944  139.4860  163.1755 C.ar    1  UNL1        0.0198
     17 C         143.9653  138.6299  162.0010 C.ar    1  UNL1        0.0311
     18 C         141.8641  141.4293  168.5840 C.3     1  UNL1        0.0266
     19 C         141.1542  140.5356  169.5574 C.3     1  UNL1        0.0215
     20 C         141.3532  140.7250  171.0321 C.3     1  UNL1        0.0689
     21 N         142.2619  141.8080  171.5333 N.3     1  UNL1       -0.2974
     22 C         142.9717  142.7017  170.5599 C.3     1  UNL1        0.0689
     23 C         142.7728  142.5123  169.0852 C.3     1  UNL1        0.0215
     24 H         142.9820  141.3522  172.0937 H       1  UNL1        0.1232
@<TRIPOS>BOND
     1    11    12    1
     2    12    13   ar
     3    13    14   ar
     4    14    15   ar
     5    15     1    1
     6     1     2   ar
     7     2     3   ar
     8     3    18    1
     9    18    19    1
    10    19    20    1
    11    20    21    1
    12    21    22    1
    13    22    23    1
    14     3     4   ar
    15     4     5   ar
    16     5     6   ar
    17     6     7    1
    18     6     8   ar
    19     8     9   ar
    20     9    10   ar
    21    15    16   ar
    22    16    17   ar
    23    17    12   ar
    24    10     1   ar
    25    23    18    1
    26    10     4   ar
    27    21    24    1
@<TRIPOS>MOLECULE
*****
 24 27 0 0 0
SMALL
GASTEIGER

@<TRIPOS>ATOM
      1 N         139.8560  141.1121  164.7645 N.ar    1  UNL1       -0.3052
      2 C         139.4174  140.8607  166.1768 C.ar    1  UNL1        0.0757
      3 C         140.4864  141.3779  167.0931 C.ar    1  UNL1       -0.0035
      4 C         141.5857  141.9490  166.2472 C.ar    1  UNL1        0.0144
      5 C         142.8911  142.5974  166.6015 C.ar    1  UNL1        0.0126
      6 C         143.8068  143.0814  165.5166 C.ar    1  UNL1        0.0578
      7 CL        145.1123  143.7298  165.8708 Cl      1  UNL1       -0.0822
      8 C         143.4172  142.9171  164.0774 C.ar    1  UNL1        0.0129
      9 C         142.1118  142.2687  163.7231 C.ar    1  UNL1        0.0184
     10 C         141.1961  141.7847  164.8080 C.ar    1  UNL1        0.0638
     11 F         136.7887  139.6787  159.8110 F       1  UNL1       -0.2042
     12 C         137.5555  140.0370  161.0493 C.ar    1  UNL1        0.1402
     13 C         137.9306  141.4654  161.3123 C.ar    1  UNL1        0.0311
     14 C         138.6974  141.8237  162.5507 C.ar    1  UNL1        0.0198
     15 C         139.0892  140.7537  163.5261 C.ar    1  UNL1        0.0642
     16 C         138.7142  139.3253  163.2632 C.ar    1  UNL1        0.0198
     17 C         137.9473  138.9670  162.0248 C.ar    1  UNL1        0.0311
     18 C         140.4607  141.3322  168.5922 C.3     1  UNL1        0.0266
     19 C         140.3552  142.6045  169.3797 C.3     1  UNL1        0.0215
     20 C         140.3295  142.5588  170.8788 C.3     1  UNL1        0.0689
     21 N         140.4093  141.2408  171.5904 N.3     1  UNL1       -0.2974
     22 C         140.5149  139.9685  170.8029 C.3     1  UNL1        0.0689
     23 C         140.5406  140.0142  169.3038 C.3     1  UNL1        0.0215
     24 H         139.5686  141.1638  172.1629 H       1  UNL1        0.1232
@<TRIPOS>BOND
     1    11    12    1
     2    12    13   ar
     3    13    14   ar
     4    14    15   ar
     5    15     1    1
     6     1     2   ar
     7     2     3   ar
     8     3    18    1
     9    18    19    1
    10    19    20    1
    11    20    21    1
    12    21    22    1
    13    22    23    1
    14     3     4   ar
    15     4     5   ar
    16     5     6   ar
    17     6     7    1
    18     6     8   ar
    19     8     9   ar
    20     9    10   ar
    21    15    16   ar
    22    16    17   ar
    23    17    12   ar
    24    10     1   ar
    25    23    18    1
    26    10     4   ar
    27    21    24    1
@<TRIPOS>MOLECULE
*****
 24 27 0 0 0
SMALL
GASTEIGER

@<TRIPOS>ATOM
      1 N         140.2504  140.6110  164.3556 N.ar    1  UNL1       -0.3052
      2 C         139.6691  141.7508  163.5727 C.ar    1  UNL1        0.0757
      3 C         140.8045  142.5494  163.0043 C.ar    1  UNL1       -0.0035
      4 C         142.0875  141.9031  163.4358 C.ar    1  UNL1        0.0144
      5 C         143.5234  142.2506  163.1761 C.ar    1  UNL1        0.0126
      6 C         144.6167  141.4002  163.7516 C.ar    1  UNL1        0.0578
      7 CL        146.0527  141.7478  163.4920 Cl      1  UNL1       -0.0822
      8 C         144.2743  140.2023  164.5868 C.ar    1  UNL1        0.0129
      9 C         142.8384  139.8547  164.8465 C.ar    1  UNL1        0.0184
     10 C         141.7450  140.7051  164.2710 C.ar    1  UNL1        0.0638
     11 F         137.1426  136.4123  167.3075 F       1  UNL1       -0.2042
     12 C         137.9195  137.4620  166.5695 C.ar    1  UNL1        0.1402
     13 C         137.9630  138.8679  167.0905 C.ar    1  UNL1        0.0311
     14 C         138.7399  139.9176  166.3525 C.ar    1  UNL1        0.0198
     15 C         139.4734  139.5614  165.0936 C.ar    1  UNL1        0.0642
     16 C         139.4300  138.1554  164.5725 C.ar    1  UNL1        0.0198
     17 C         138.6531  137.1057  165.3105 C.ar    1  UNL1        0.0311
     18 C         140.6790  143.7784  162.1536 C.3     1  UNL1        0.0266
     19 C         139.9866  144.9955  162.6917 C.3     1  UNL1        0.0215
     20 C         139.8611  146.2246  161.8410 C.3     1  UNL1        0.0689
     21 N         140.4279  146.2366  160.4523 N.3     1  UNL1       -0.2974
     22 C         141.1202  145.0196  159.9142 C.3     1  UNL1        0.0689
     23 C         141.2457  143.7905  160.7649 C.3     1  UNL1        0.0215
     24 H         141.1038  146.9997  160.4167 H       1  UNL1        0.1232
@<TRIPOS>BOND
     1    11    12    1
     2    12    13   ar
     3    13    14   ar
     4    14    15   ar
     5    15     1    1
     6     1     2   ar
     7     2     3   ar
     8     3    18    1
     9    18    19    1
    10    19    20    1
    11    20    21    1
    12    21    22    1
    13    22    23    1
    14     3     4   ar
    15     4     5   ar
    16     5     6   ar
    17     6     7    1
    18     6     8   ar
    19     8     9   ar
    20     9    10   ar
    21    15    16   ar
    22    16    17   ar
    23    17    12   ar
    24    10     1   ar
    25    23    18    1
    26    10     4   ar
    27    21    24    1
@<TRIPOS>MOLECULE
*****
 24 27 0 0 0
SMALL
GASTEIGER

@<TRIPOS>ATOM
      1 N         140.7339  141.7272  166.1693 N.ar    1  UNL1       -0.3052
      2 C         141.0391  142.9723  165.3905 C.ar    1  UNL1        0.0757
      3 C         140.4640  142.8111  164.0146 C.ar    1  UNL1       -0.0035
      4 C         139.8034  141.4663  163.9429 C.ar    1  UNL1        0.0144
      5 C         139.0715  140.7653  162.8371 C.ar    1  UNL1        0.0126
      6 C         138.5064  139.3943  163.0630 C.ar    1  UNL1        0.0578
      7 CL        137.7745  138.6932  161.9572 Cl      1  UNL1       -0.0822
      8 C         138.6732  138.7244  164.3947 C.ar    1  UNL1        0.0129
      9 C         139.4050  139.4254  165.5005 C.ar    1  UNL1        0.0184
     10 C         139.9701  140.7964  165.2746 C.ar    1  UNL1        0.0638
     11 F         142.2940  140.6573  171.8633 F       1  UNL1       -0.2042
     12 C         141.9040  140.9248  170.4398 C.ar    1  UNL1        0.1402
     13 C         140.4632  140.8472  170.0296 C.ar    1  UNL1        0.0311
     14 C         140.0732  141.1147  168.6061 C.ar    1  UNL1        0.0198
     15 C         141.1239  141.4597  167.5928 C.ar    1  UNL1        0.0642
     16 C         142.5647  141.5372  168.0029 C.ar    1  UNL1        0.0198
     17 C         142.9547  141.2697  169.4264 C.ar    1  UNL1        0.0311
     18 C         140.5368  143.8179  162.9050 C.3     1  UNL1        0.0266
     19 C         141.4204  143.5649  161.7194 C.3     1  UNL1        0.0215
     20 C         141.4932  144.5717  160.6099 C.3     1  UNL1        0.0689
     21 N         140.6825  145.8314  160.6859 N.3     1  UNL1       -0.2974
     22 C         139.7990  146.0844  161.8714 C.3     1  UNL1        0.0689
     23 C         139.7262  145.0776  162.9809 C.3     1  UNL1        0.0215
     24 H         140.0809  145.8446  159.8622 H       1  UNL1        0.1232
@<TRIPOS>BOND
     1    11    12    1
     2    12    13   ar
     3    13    14   ar
     4    14    15   ar
     5    15     1    1
     6     1     2   ar
     7     2     3   ar
     8     3    18    1
     9    18    19    1
    10    19    20    1
    11    20    21    1
    12    21    22    1
    13    22    23    1
    14     3     4   ar
    15     4     5   ar
    16     5     6   ar
    17     6     7    1
    18     6     8   ar
    19     8     9   ar
    20     9    10   ar
    21    15    16   ar
    22    16    17   ar
    23    17    12   ar
    24    10     1   ar
    25    23    18    1
    26    10     4   ar
    27    21    24    1
@<TRIPOS>MOLECULE
*****
 24 27 0 0 0
SMALL
GASTEIGER

@<TRIPOS>ATOM
      1 N         141.2647  139.9521  163.7838 N.ar    1  UNL1       -0.3052
      2 C         140.7837  139.4051  165.0951 C.ar    1  UNL1        0.0757
      3 C         141.4734  140.1594  166.1930 C.ar    1  UNL1       -0.0035
      4 C         142.3806  141.1727  165.5602 C.ar    1  UNL1        0.0144
      5 C         143.3075  142.1954  166.1475 C.ar    1  UNL1        0.0126
      6 C         144.1054  143.0900  165.2459 C.ar    1  UNL1        0.0578
      7 CL        145.0323  144.1127  165.8331 Cl      1  UNL1       -0.0822
      8 C         143.9764  142.9618  163.7569 C.ar    1  UNL1        0.0129
      9 C         143.0495  141.9391  163.1696 C.ar    1  UNL1        0.0184
     10 C         142.2517  141.0445  164.0713 C.ar    1  UNL1        0.0638
     11 F         139.5433  138.0965  158.3438 F       1  UNL1       -0.2042
     12 C         139.9737  138.5604  159.7038 C.ar    1  UNL1        0.1402
     13 C         138.9725  139.1693  160.6402 C.ar    1  UNL1        0.0311
     14 C         139.4029  139.6332  162.0002 C.ar    1  UNL1        0.0198
     15 C         140.8344  139.4882  162.4238 C.ar    1  UNL1        0.0642
     16 C         141.8357  138.8793  161.4875 C.ar    1  UNL1        0.0198
     17 C         141.4053  138.4154  160.1275 C.ar    1  UNL1        0.0311
     18 C         141.2884  139.9392  167.6651 C.3     1  UNL1        0.0266
     19 C         139.9785  140.2744  168.3148 C.3     1  UNL1        0.0215
     20 C         139.7934  140.0542  169.7870 C.3     1  UNL1        0.0689
     21 N         140.9182  139.4988  170.6095 N.3     1  UNL1       -0.2974
     22 C         142.2280  139.1637  169.9598 C.3     1  UNL1        0.0689
     23 C         142.4130  139.3839  168.4876 C.3     1  UNL1        0.0215
     24 H         140.5735  138.6396  171.0377 H       1  UNL1        0.1232
@<TRIPOS>BOND
     1    11    12    1
     2    12    13   ar
     3    13    14   ar
     4    14    15   ar
     5    15     1    1
     6     1     2   ar
     7     2     3   ar
     8     3    18    1
     9    18    19    1
    10    19    20    1
    11    20    21    1
    12    21    22    1
    13    22    23    1
    14     3     4   ar
    15     4     5   ar
    16     5     6   ar
    17     6     7    1
    18     6     8   ar
    19     8     9   ar
    20     9    10   ar
    21    15    16   ar
    22    16    17   ar
    23    17    12   ar
    24    10     1   ar
    25    23    18    1
    26    10     4   ar
    27    21    24    1
@<TRIPOS>MOLECULE
*****
 24 27 0 0 0
SMALL
GASTEIGER

@<TRIPOS>ATOM
      1 N         141.2469  142.3780  165.3684 N.ar    1  UNL1       -0.3052
      2 C         141.8280  143.2472  164.2929 C.ar    1  UNL1        0.0757
      3 C         141.2493  142.8096  162.9801 C.ar    1  UNL1       -0.0035
      4 C         140.3105  141.6699  163.2442 C.ar    1  UNL1        0.0144
      5 C         139.4569  140.8405  162.3313 C.ar    1  UNL1        0.0126
      6 C         138.6017  139.7444  162.8944 C.ar    1  UNL1        0.0578
      7 CL        137.7480  138.9150  161.9815 Cl      1  UNL1       -0.0822
      8 C         138.6002  139.4776  164.3705 C.ar    1  UNL1        0.0129
      9 C         139.4539  140.3070  165.2834 C.ar    1  UNL1        0.0184
     10 C         140.3090  141.4031  164.7203 C.ar    1  UNL1        0.0638
     11 F         142.4605  142.7372  171.2334 F       1  UNL1       -0.2042
     12 C         142.1571  142.6474  169.7672 C.ar    1  UNL1        0.1402
     13 C         143.2301  142.2363  168.8031 C.ar    1  UNL1        0.0311
     14 C         142.9267  142.1465  167.3368 C.ar    1  UNL1        0.0198
     15 C         141.5503  142.4678  166.8347 C.ar    1  UNL1        0.0642
     16 C         140.4772  142.8789  167.7988 C.ar    1  UNL1        0.0198
     17 C         140.7806  142.9687  169.2651 C.ar    1  UNL1        0.0311
     18 C         141.5556  143.4068  161.6386 C.3     1  UNL1        0.0266
     19 C         142.5726  142.7611  160.7447 C.3     1  UNL1        0.0215
     20 C         142.8789  143.3584  159.4032 C.3     1  UNL1        0.0689
     21 N         142.1682  144.6012  158.9557 N.3     1  UNL1       -0.2974
     22 C         141.1513  145.2468  159.8495 C.3     1  UNL1        0.0689
     23 C         140.8450  144.6496  161.1910 C.3     1  UNL1        0.0215
     24 H         141.6901  144.3696  158.0849 H       1  UNL1        0.1232
@<TRIPOS>BOND
     1    11    12    1
     2    12    13   ar
     3    13    14   ar
     4    14    15   ar
     5    15     1    1
     6     1     2   ar
     7     2     3   ar
     8     3    18    1
     9    18    19    1
    10    19    20    1
    11    20    21    1
    12    21    22    1
    13    22    23    1
    14     3     4   ar
    15     4     5   ar
    16     5     6   ar
    17     6     7    1
    18     6     8   ar
    19     8     9   ar
    20     9    10   ar
    21    15    16   ar
    22    16    17   ar
    23    17    12   ar
    24    10     1   ar
    25    23    18    1
    26    10     4   ar
    27    21    24    1
