@<TRIPOS>MOLECULE
*****
 26 29 0 0 0
SMALL
GASTEIGER

@<TRIPOS>ATOM
      1 C         142.5883  138.1575  162.5331 C.ar    1  UNL1       -0.0206
      2 C         141.6702  137.5803  163.5693 C.ar    1  UNL1       -0.0011
      3 C         141.9974  137.7258  165.0260 C.ar    1  UNL1        0.0373
      4 C         143.2428  138.4487  165.4463 C.ar    1  UNL1        0.1477
      5 C         144.1608  139.0260  164.4100 C.ar    1  UNL1        0.0373
      6 C         143.8336  138.8804  162.9534 C.ar    1  UNL1       -0.0011
      7 C         142.2611  138.0120  161.0764 C.3     1  UNL1        0.0437
      8 C         141.4271  139.0512  160.3876 C.3     1  UNL1        0.0768
      9 O         136.5840  141.3053  163.1195 O.3     1  UNL1       -0.3844
     10 C         137.7948  140.7417  162.4365 C.3     1  UNL1        0.1133
     11 C         137.7477  139.3658  161.8411 C.3     1  UNL1        0.0466
     12 C         138.9584  138.8022  161.1582 C.3     1  UNL1        0.0746
     13 N         140.2163  139.6147  161.0705 N.3     1  UNL1       -0.2722
     14 C         140.2634  140.9907  161.6659 C.3     1  UNL1        0.0746
     15 C         139.0526  141.5542  162.3489 C.3     1  UNL1        0.0466
     16 H         135.8637  140.6564  163.0880 H       1  UNL1        0.2103
     17 O         143.5700  138.5943  166.9029 O.3     1  UNL1       -0.4313
     18 C         142.8163  139.5797  167.7461 C.ar    1  UNL1        0.2628
     19 N         142.6131  139.4967  169.2299 N.ar    1  UNL1       -0.2050
     20 C         141.8047  140.6868  169.6544 C.ar    1  UNL1        0.0910
     21 C         141.3003  141.1308  170.9954 C.ar    1  UNL1        0.0197
     22 C         140.4994  142.3935  171.1148 C.ar    1  UNL1        0.0016
     23 C         140.2030  143.2120  169.8933 C.ar    1  UNL1        0.0006
     24 C         140.7074  142.7679  168.5523 C.ar    1  UNL1        0.0081
     25 C         141.5083  141.5053  168.4329 C.ar    1  UNL1        0.0515
     26 S         142.1335  140.8211  167.2535 S.2     1  UNL1       -0.0283
@<TRIPOS>BOND
     1     9    10    1
     2    10    11    1
     3    11    12    1
     4    12    13    1
     5    13     8    1
     6     8     7    1
     7     7     1    1
     8     1     2   ar
     9     2     3   ar
    10     3     4   ar
    11     4    17    1
    12    17    18    1
    13    18    19   ar
    14    19    20   ar
    15    20    21   ar
    16    21    22   ar
    17    22    23   ar
    18    23    24   ar
    19    24    25   ar
    20    25    26   ar
    21     4     5   ar
    22     5     6   ar
    23    13    14    1
    24    14    15    1
    25    15    10    1
    26     6     1   ar
    27    26    18   ar
    28    25    20   ar
    29     9    16    1
@<TRIPOS>MOLECULE
*****
 26 29 0 0 0
SMALL
GASTEIGER

@<TRIPOS>ATOM
      1 C         139.9223  138.0553  162.3140 C.ar    1  UNL1       -0.0206
      2 C         141.3192  138.5574  162.0985 C.ar    1  UNL1       -0.0011
      3 C         142.2874  138.5960  163.2436 C.ar    1  UNL1        0.0373
      4 C         141.8586  138.1324  164.6042 C.ar    1  UNL1        0.1477
      5 C         140.4617  137.6303  164.8197 C.ar    1  UNL1        0.0373
      6 C         139.4936  137.5917  163.6746 C.ar    1  UNL1       -0.0011
      7 C         138.9541  138.0167  161.1689 C.3     1  UNL1        0.0437
      8 C         137.7166  138.8635  161.2043 C.3     1  UNL1        0.0768
      9 O         138.1088  144.6935  162.5668 O.3     1  UNL1       -0.3844
     10 C         138.0107  143.2360  162.2262 C.3     1  UNL1        0.1133
     11 C         138.4155  142.7553  160.8642 C.3     1  UNL1        0.0466
     12 C         138.3175  141.2978  160.5236 C.3     1  UNL1        0.0746
     13 N         137.8146  140.3210  161.5449 N.3     1  UNL1       -0.2722
     14 C         137.4098  140.8018  162.9069 C.3     1  UNL1        0.0746
     15 C         137.5079  142.2594  163.2475 C.3     1  UNL1        0.0466
     16 H         138.4494  145.1823  161.8013 H       1  UNL1        0.2103
     17 O         142.8268  138.1710  165.7493 O.3     1  UNL1       -0.4313
     18 C         142.6597  139.1884  166.8387 C.ar    1  UNL1        0.2628
     19 N         142.9767  138.9856  168.2907 N.ar    1  UNL1       -0.2050
     20 C         142.6592  140.2591  169.0169 C.ar    1  UNL1        0.0910
     21 C         142.7711  140.6452  170.4620 C.ar    1  UNL1        0.0197
     22 C         142.3698  142.0212  170.9039 C.ar    1  UNL1        0.0016
     23 C         141.8565  143.0112  169.9007 C.ar    1  UNL1        0.0006
     24 C         141.7445  142.6251  168.4556 C.ar    1  UNL1        0.0081
     25 C         142.1459  141.2491  168.0137 C.ar    1  UNL1        0.0515
     26 S         142.1462  140.5873  166.6675 S.2     1  UNL1       -0.0283
@<TRIPOS>BOND
     1     9    10    1
     2    10    11    1
     3    11    12    1
     4    12    13    1
     5    13     8    1
     6     8     7    1
     7     7     1    1
     8     1     2   ar
     9     2     3   ar
    10     3     4   ar
    11     4    17    1
    12    17    18    1
    13    18    19   ar
    14    19    20   ar
    15    20    21   ar
    16    21    22   ar
    17    22    23   ar
    18    23    24   ar
    19    24    25   ar
    20    25    26   ar
    21     4     5   ar
    22     5     6   ar
    23    13    14    1
    24    14    15    1
    25    15    10    1
    26     6     1   ar
    27    26    18   ar
    28    25    20   ar
    29     9    16    1
@<TRIPOS>MOLECULE
*****
 26 29 0 0 0
SMALL
GASTEIGER

@<TRIPOS>ATOM
      1 C         138.4876  138.8002  162.7361 C.ar    1  UNL1       -0.0206
      2 C         138.0992  140.0925  163.3910 C.ar    1  UNL1       -0.0011
      3 C         138.1075  140.2076  164.8867 C.ar    1  UNL1        0.0373
      4 C         138.5042  139.0303  165.7273 C.ar    1  UNL1        0.1477
      5 C         138.8926  137.7379  165.0722 C.ar    1  UNL1        0.0373
      6 C         138.8843  137.6229  163.5767 C.ar    1  UNL1       -0.0011
      7 C         138.4793  138.6851  161.2405 C.3     1  UNL1        0.0437
      8 C         139.7253  138.2751  160.5129 C.3     1  UNL1        0.0768
      9 O         145.0717  140.2817  162.3538 O.3     1  UNL1       -0.3844
     10 C         143.7351  139.7801  161.8936 C.3     1  UNL1        0.1133
     11 C         142.7399  140.7330  161.3007 C.3     1  UNL1        0.0466
     12 C         141.4033  140.2314  160.8405 C.3     1  UNL1        0.0746
     13 N         141.0619  138.7768  160.9731 N.3     1  UNL1       -0.2722
     14 C         142.0571  137.8238  161.5660 C.3     1  UNL1        0.0746
     15 C         143.3938  138.3255  162.0262 C.3     1  UNL1        0.0466
     16 H         145.1297  141.2373  162.1976 H       1  UNL1        0.2103
     17 O         138.5125  139.1453  167.2228 O.3     1  UNL1       -0.4313
     18 C         139.5708  139.9592  167.9065 C.ar    1  UNL1        0.2628
     19 N         139.4347  140.6474  169.2324 N.ar    1  UNL1       -0.2050
     20 C         140.7308  141.3413  169.5298 C.ar    1  UNL1        0.0910
     21 C         141.1787  142.1758  170.6929 C.ar    1  UNL1        0.0197
     22 C         142.5639  142.7509  170.7141 C.ar    1  UNL1        0.0016
     23 C         143.5012  142.4916  169.5720 C.ar    1  UNL1        0.0006
     24 C         143.0533  141.6571  168.4089 C.ar    1  UNL1        0.0081
     25 C         141.6681  141.0819  168.3878 C.ar    1  UNL1        0.0515
     26 S         140.9512  140.2278  167.3846 S.2     1  UNL1       -0.0283
@<TRIPOS>BOND
     1     9    10    1
     2    10    11    1
     3    11    12    1
     4    12    13    1
     5    13     8    1
     6     8     7    1
     7     7     1    1
     8     1     2   ar
     9     2     3   ar
    10     3     4   ar
    11     4    17    1
    12    17    18    1
    13    18    19   ar
    14    19    20   ar
    15    20    21   ar
    16    21    22   ar
    17    22    23   ar
    18    23    24   ar
    19    24    25   ar
    20    25    26   ar
    21     4     5   ar
    22     5     6   ar
    23    13    14    1
    24    14    15    1
    25    15    10    1
    26     6     1   ar
    27    26    18   ar
    28    25    20   ar
    29     9    16    1
@<TRIPOS>MOLECULE
*****
 26 29 0 0 0
SMALL
GASTEIGER

@<TRIPOS>ATOM
      1 C         142.2871  144.1939  161.8234 C.ar    1  UNL1       -0.0206
      2 C         142.3359  144.9786  163.1008 C.ar    1  UNL1       -0.0011
      3 C         142.8751  144.3461  164.3495 C.ar    1  UNL1        0.0373
      4 C         143.3654  142.9288  164.3208 C.ar    1  UNL1        0.1477
      5 C         143.3165  142.1440  163.0433 C.ar    1  UNL1        0.0373
      6 C         142.7774  142.7766  161.7947 C.ar    1  UNL1       -0.0011
      7 C         141.7479  144.8264  160.5747 C.3     1  UNL1        0.0437
      8 C         140.2662  144.9443  160.3732 C.3     1  UNL1        0.0768
      9 O         136.5361  141.2986  163.3388 O.3     1  UNL1       -0.3844
     10 C         137.4686  142.2100  162.5974 C.3     1  UNL1        0.1133
     11 C         137.7663  143.5779  163.1361 C.3     1  UNL1        0.0466
     12 C         138.6988  144.4893  162.3948 C.3     1  UNL1        0.0746
     13 N         139.3337  144.0329  161.1146 N.3     1  UNL1       -0.2722
     14 C         139.0359  142.6650  160.5759 C.3     1  UNL1        0.0746
     15 C         138.1033  141.7536  161.3173 C.3     1  UNL1        0.0466
     16 H         136.2164  141.7443  164.1388 H       1  UNL1        0.2103
     17 O         143.9046  142.2963  165.5694 O.3     1  UNL1       -0.4313
     18 C         142.9706  141.9087  166.6773 C.ar    1  UNL1        0.2628
     19 N         141.6892  141.1443  166.5234 N.ar    1  UNL1       -0.2050
     20 C         141.0807  140.9806  167.8846 C.ar    1  UNL1        0.0910
     21 C         139.8192  140.3133  168.3465 C.ar    1  UNL1        0.0197
     22 C         139.4631  140.3092  169.8035 C.ar    1  UNL1        0.0016
     23 C         140.3684  140.9724  170.7988 C.ar    1  UNL1        0.0006
     24 C         141.6299  141.6397  170.3370 C.ar    1  UNL1        0.0081
     25 C         141.9861  141.6438  168.8799 C.ar    1  UNL1        0.0515
     26 S         143.1541  142.2173  168.1337 S.2     1  UNL1       -0.0283
@<TRIPOS>BOND
     1     9    10    1
     2    10    11    1
     3    11    12    1
     4    12    13    1
     5    13     8    1
     6     8     7    1
     7     7     1    1
     8     1     2   ar
     9     2     3   ar
    10     3     4   ar
    11     4    17    1
    12    17    18    1
    13    18    19   ar
    14    19    20   ar
    15    20    21   ar
    16    21    22   ar
    17    22    23   ar
    18    23    24   ar
    19    24    25   ar
    20    25    26   ar
    21     4     5   ar
    22     5     6   ar
    23    13    14    1
    24    14    15    1
    25    15    10    1
    26     6     1   ar
    27    26    18   ar
    28    25    20   ar
    29     9    16    1
@<TRIPOS>MOLECULE
*****
 26 29 0 0 0
SMALL
GASTEIGER

@<TRIPOS>ATOM
      1 C         139.6901  138.1603  162.3646 C.ar    1  UNL1       -0.0206
      2 C         141.0327  138.8145  162.2251 C.ar    1  UNL1       -0.0011
      3 C         141.9428  138.9199  163.4128 C.ar    1  UNL1        0.0373
      4 C         141.5103  138.3710  164.7401 C.ar    1  UNL1        0.1477
      5 C         140.1676  137.7168  164.8796 C.ar    1  UNL1        0.0373
      6 C         139.2576  137.6114  163.6919 C.ar    1  UNL1       -0.0011
      7 C         138.7800  138.0550  161.1769 C.3     1  UNL1        0.0437
      8 C         137.6298  139.0060  161.0267 C.3     1  UNL1        0.0768
      9 O         138.2868  144.7725  162.5481 O.3     1  UNL1       -0.3844
     10 C         138.1225  143.3309  162.1678 C.3     1  UNL1        0.1133
     11 C         137.5245  142.3612  163.1435 C.3     1  UNL1        0.0466
     12 C         137.3602  140.9196  162.7632 C.3     1  UNL1        0.0746
     13 N         137.7940  140.4476  161.4070 N.3     1  UNL1       -0.2722
     14 C         138.3921  141.4172  160.4313 C.3     1  UNL1        0.0746
     15 C         138.5564  142.8589  160.8117 C.3     1  UNL1        0.0466
     16 H         137.9590  144.9081  163.4509 H       1  UNL1        0.2103
     17 O         142.4203  138.4763  165.9278 O.3     1  UNL1       -0.4313
     18 C         142.1699  139.5214  166.9742 C.ar    1  UNL1        0.2628
     19 N         141.3888  140.7881  166.7860 N.ar    1  UNL1       -0.2050
     20 C         141.3928  141.5329  168.0880 C.ar    1  UNL1        0.0910
     21 C         140.7841  142.8412  168.4978 C.ar    1  UNL1        0.0197
     22 C         140.9590  143.3431  169.9004 C.ar    1  UNL1        0.0016
     23 C         141.7427  142.5368  170.8933 C.ar    1  UNL1        0.0006
     24 C         142.3513  141.2286  170.4835 C.ar    1  UNL1        0.0081
     25 C         142.1764  140.7266  169.0809 C.ar    1  UNL1        0.0515
     26 S         142.6566  139.4835  168.3925 S.2     1  UNL1       -0.0283
@<TRIPOS>BOND
     1     9    10    1
     2    10    11    1
     3    11    12    1
     4    12    13    1
     5    13     8    1
     6     8     7    1
     7     7     1    1
     8     1     2   ar
     9     2     3   ar
    10     3     4   ar
    11     4    17    1
    12    17    18    1
    13    18    19   ar
    14    19    20   ar
    15    20    21   ar
    16    21    22   ar
    17    22    23   ar
    18    23    24   ar
    19    24    25   ar
    20    25    26   ar
    21     4     5   ar
    22     5     6   ar
    23    13    14    1
    24    14    15    1
    25    15    10    1
    26     6     1   ar
    27    26    18   ar
    28    25    20   ar
    29     9    16    1
@<TRIPOS>MOLECULE
*****
 26 29 0 0 0
SMALL
GASTEIGER

@<TRIPOS>ATOM
      1 C         139.6783  141.3445  165.7224 C.ar    1  UNL1       -0.0206
      2 C         138.4813  141.5466  164.8414 C.ar    1  UNL1       -0.0011
      3 C         138.3993  142.7519  163.9523 C.ar    1  UNL1        0.0373
      4 C         139.5144  143.7552  163.9443 C.ar    1  UNL1        0.1477
      5 C         140.7115  143.5530  164.8253 C.ar    1  UNL1        0.0373
      6 C         140.7934  142.3477  165.7144 C.ar    1  UNL1       -0.0011
      7 C         139.7603  140.1391  166.6115 C.3     1  UNL1        0.0437
      8 C         139.6360  140.2939  168.0983 C.3     1  UNL1        0.0768
      9 O         143.4248  143.8745  171.0687 O.3     1  UNL1       -0.3844
     10 C         142.4776  142.9794  170.3261 C.3     1  UNL1        0.1133
     11 C         142.9735  141.6991  169.7220 C.3     1  UNL1        0.0466
     12 C         142.0263  140.8039  168.9794 C.3     1  UNL1        0.0746
     13 N         140.5831  141.1891  168.8409 N.3     1  UNL1       -0.2722
     14 C         140.0873  142.4694  169.4450 C.3     1  UNL1        0.0746
     15 C         141.0346  143.3646  170.1876 C.3     1  UNL1        0.0466
     16 H         144.3115  143.4812  171.0649 H       1  UNL1        0.2103
     17 O         139.4325  144.9605  163.0552 O.3     1  UNL1       -0.4313
     18 C         140.0491  144.9275  161.6882 C.ar    1  UNL1        0.2628
     19 N         139.6571  145.7871  160.5232 N.ar    1  UNL1       -0.2050
     20 C         140.5317  145.4200  159.3611 C.ar    1  UNL1        0.0910
     21 C         140.5994  145.9347  157.9539 C.ar    1  UNL1        0.0197
     22 C         141.5997  145.3628  156.9935 C.ar    1  UNL1        0.0016
     23 C         142.5322  144.2762  157.4404 C.ar    1  UNL1        0.0006
     24 C         142.4645  143.7615  158.8476 C.ar    1  UNL1        0.0081
     25 C         141.4642  144.3334  159.8080 C.ar    1  UNL1        0.0515
     26 S         141.1659  144.0290  161.2462 S.2     1  UNL1       -0.0283
@<TRIPOS>BOND
     1     9    10    1
     2    10    11    1
     3    11    12    1
     4    12    13    1
     5    13     8    1
     6     8     7    1
     7     7     1    1
     8     1     2   ar
     9     2     3   ar
    10     3     4   ar
    11     4    17    1
    12    17    18    1
    13    18    19   ar
    14    19    20   ar
    15    20    21   ar
    16    21    22   ar
    17    22    23   ar
    18    23    24   ar
    19    24    25   ar
    20    25    26   ar
    21     4     5   ar
    22     5     6   ar
    23    13    14    1
    24    14    15    1
    25    15    10    1
    26     6     1   ar
    27    26    18   ar
    28    25    20   ar
    29     9    16    1
@<TRIPOS>MOLECULE
*****
 26 29 0 0 0
SMALL
GASTEIGER

@<TRIPOS>ATOM
      1 C         143.7913  139.5511  162.2022 C.ar    1  UNL1       -0.0206
      2 C         142.6367  138.7231  162.6829 C.ar    1  UNL1       -0.0011
      3 C         142.5216  138.3686  164.1359 C.ar    1  UNL1        0.0373
      4 C         143.5611  138.8421  165.1081 C.ar    1  UNL1        0.1477
      5 C         144.7158  139.6701  164.6273 C.ar    1  UNL1        0.0373
      6 C         144.8309  140.0246  163.1743 C.ar    1  UNL1       -0.0011
      7 C         143.9064  139.9056  160.7492 C.3     1  UNL1        0.0437
      8 C         143.2421  141.1438  160.2244 C.3     1  UNL1        0.0768
      9 O         141.7658  145.5797  163.9851 O.3     1  UNL1       -0.3844
     10 C         142.1349  144.4708  163.0449 C.3     1  UNL1        0.1133
     11 C         143.5411  144.3561  162.5357 C.3     1  UNL1        0.0466
     12 C         143.9102  143.2471  161.5955 C.3     1  UNL1        0.0746
     13 N         142.8730  142.2528  161.1646 N.3     1  UNL1       -0.2722
     14 C         141.4668  142.3675  161.6738 C.3     1  UNL1        0.0746
     15 C         141.0977  143.4765  162.6141 C.3     1  UNL1        0.0466
     16 H         142.5463  146.1284  164.1602 H       1  UNL1        0.2103
     17 O         143.4461  138.4876  166.5610 O.3     1  UNL1       -0.4313
     18 C         142.7577  139.4240  167.5093 C.ar    1  UNL1        0.2628
     19 N         142.7590  139.3219  169.0058 N.ar    1  UNL1       -0.2050
     20 C         141.9493  140.4618  169.5490 C.ar    1  UNL1        0.0910
     21 C         141.6041  140.8694  170.9506 C.ar    1  UNL1        0.0197
     22 C         140.7570  142.0837  171.1914 C.ar    1  UNL1        0.0016
     23 C         140.2553  142.8903  170.0305 C.ar    1  UNL1        0.0006
     24 C         140.6005  142.4827  168.6289 C.ar    1  UNL1        0.0081
     25 C         141.4475  141.2684  168.3881 C.ar    1  UNL1        0.0515
     26 S         141.9472  140.6270  167.1276 S.2     1  UNL1       -0.0283
@<TRIPOS>BOND
     1     9    10    1
     2    10    11    1
     3    11    12    1
     4    12    13    1
     5    13     8    1
     6     8     7    1
     7     7     1    1
     8     1     2   ar
     9     2     3   ar
    10     3     4   ar
    11     4    17    1
    12    17    18    1
    13    18    19   ar
    14    19    20   ar
    15    20    21   ar
    16    21    22   ar
    17    22    23   ar
    18    23    24   ar
    19    24    25   ar
    20    25    26   ar
    21     4     5   ar
    22     5     6   ar
    23    13    14    1
    24    14    15    1
    25    15    10    1
    26     6     1   ar
    27    26    18   ar
    28    25    20   ar
    29     9    16    1
@<TRIPOS>MOLECULE
*****
 26 29 0 0 0
SMALL
GASTEIGER

@<TRIPOS>ATOM
      1 C         138.7060  142.1143  161.8392 C.ar    1  UNL1       -0.0206
      2 C         137.9920  142.7529  162.9935 C.ar    1  UNL1       -0.0011
      3 C         137.8543  142.0141  164.2917 C.ar    1  UNL1        0.0373
      4 C         138.4305  140.6367  164.4355 C.ar    1  UNL1        0.1477
      5 C         139.1445  139.9981  163.2811 C.ar    1  UNL1        0.0373
      6 C         139.2822  140.7369  161.9830 C.ar    1  UNL1       -0.0011
      7 C         138.8438  142.8532  160.5410 C.3     1  UNL1        0.0437
      8 C         139.8238  143.9823  160.4211 C.3     1  UNL1        0.0768
      9 O         144.1242  144.6733  164.5477 O.3     1  UNL1       -0.3844
     10 C         143.0491  144.5005  163.5160 C.3     1  UNL1        0.1133
     11 C         141.8018  145.3309  163.5863 C.3     1  UNL1        0.0466
     12 C         140.7268  145.1581  162.5547 C.3     1  UNL1        0.0746
     13 N         140.8989  144.1551  161.4527 N.3     1  UNL1       -0.2722
     14 C         142.1461  143.3247  161.3824 C.3     1  UNL1        0.0746
     15 C         143.2213  143.4975  162.4141 C.3     1  UNL1        0.0466
     16 H         143.8563  145.3558  165.1827 H       1  UNL1        0.2103
     17 O         138.2928  139.8978  165.7336 O.3     1  UNL1       -0.4313
     18 C         139.3121  140.0891  166.8173 C.ar    1  UNL1        0.2628
     19 N         139.1434  139.7205  168.2615 N.ar    1  UNL1       -0.2050
     20 C         140.4062  140.0862  168.9838 C.ar    1  UNL1        0.0910
     21 C         140.8143  139.9545  170.4212 C.ar    1  UNL1        0.0197
     22 C         142.1717  140.4175  170.8607 C.ar    1  UNL1        0.0016
     23 C         143.1208  141.0120  169.8630 C.ar    1  UNL1        0.0006
     24 C         142.7127  141.1436  168.4256 C.ar    1  UNL1        0.0081
     25 C         141.3553  140.6807  167.9860 C.ar    1  UNL1        0.0515
     26 S         140.6792  140.6825  166.6471 S.2     1  UNL1       -0.0283
@<TRIPOS>BOND
     1     9    10    1
     2    10    11    1
     3    11    12    1
     4    12    13    1
     5    13     8    1
     6     8     7    1
     7     7     1    1
     8     1     2   ar
     9     2     3   ar
    10     3     4   ar
    11     4    17    1
    12    17    18    1
    13    18    19   ar
    14    19    20   ar
    15    20    21   ar
    16    21    22   ar
    17    22    23   ar
    18    23    24   ar
    19    24    25   ar
    20    25    26   ar
    21     4     5   ar
    22     5     6   ar
    23    13    14    1
    24    14    15    1
    25    15    10    1
    26     6     1   ar
    27    26    18   ar
    28    25    20   ar
    29     9    16    1
@<TRIPOS>MOLECULE
*****
 26 29 0 0 0
SMALL
GASTEIGER

@<TRIPOS>ATOM
      1 C         138.1122  139.5469  162.4374 C.ar    1  UNL1       -0.0206
      2 C         138.6010  138.2438  162.9967 C.ar    1  UNL1       -0.0011
      3 C         138.7863  138.0852  164.4768 C.ar    1  UNL1        0.0373
      4 C         138.4827  139.2298  165.3975 C.ar    1  UNL1        0.1477
      5 C         137.9939  140.5330  164.8382 C.ar    1  UNL1        0.0373
      6 C         137.8086  140.6915  163.3581 C.ar    1  UNL1       -0.0011
      7 C         137.9269  139.7055  160.9573 C.3     1  UNL1        0.0437
      8 C         139.0822  140.1248  160.0975 C.3     1  UNL1        0.0768
      9 O         142.1281  145.1281  161.3974 O.3     1  UNL1       -0.3844
     10 C         141.3666  143.8773  161.0724 C.3     1  UNL1        0.1133
     11 C         140.0023  143.9687  160.4556 C.3     1  UNL1        0.0466
     12 C         139.2409  142.7179  160.1306 C.3     1  UNL1        0.0746
     13 N         139.8437  141.3756  160.4225 N.3     1  UNL1       -0.2722
     14 C         141.2079  141.2843  161.0393 C.3     1  UNL1        0.0746
     15 C         141.9694  142.5352  161.3643 C.3     1  UNL1        0.0466
     16 H         141.5998  145.9023  161.1475 H       1  UNL1        0.2103
     17 O         138.6680  139.0713  166.8776 O.3     1  UNL1       -0.4313
     18 C         139.6821  139.9075  167.6003 C.ar    1  UNL1        0.2628
     19 N         139.4887  140.5746  168.9298 N.ar    1  UNL1       -0.2050
     20 C         140.7547  141.3028  169.2716 C.ar    1  UNL1        0.0910
     21 C         141.1450  142.1355  170.4566 C.ar    1  UNL1        0.0197
     22 C         142.5111  142.7511  170.5234 C.ar    1  UNL1        0.0016
     23 C         143.4871  142.5341  169.4052 C.ar    1  UNL1        0.0006
     24 C         143.0968  141.7014  168.2202 C.ar    1  UNL1        0.0081
     25 C         141.7306  141.0858  168.1534 C.ar    1  UNL1        0.0515
     26 S         141.0677  140.2234  167.1205 S.2     1  UNL1       -0.0283
@<TRIPOS>BOND
     1     9    10    1
     2    10    11    1
     3    11    12    1
     4    12    13    1
     5    13     8    1
     6     8     7    1
     7     7     1    1
     8     1     2   ar
     9     2     3   ar
    10     3     4   ar
    11     4    17    1
    12    17    18    1
    13    18    19   ar
    14    19    20   ar
    15    20    21   ar
    16    21    22   ar
    17    22    23   ar
    18    23    24   ar
    19    24    25   ar
    20    25    26   ar
    21     4     5   ar
    22     5     6   ar
    23    13    14    1
    24    14    15    1
    25    15    10    1
    26     6     1   ar
    27    26    18   ar
    28    25    20   ar
    29     9    16    1
