@<TRIPOS>MOLECULE
*****
 38 41 0 0 0
SMALL
GASTEIGER

@<TRIPOS>ATOM
      1 C         138.3294  138.7765  165.9190 C.3     1  UNL1        0.0310
      2 C         139.2161  138.6873  164.7124 C.ar    1  UNL1       -0.0218
      3 C         139.2556  137.4256  163.9022 C.ar    1  UNL1       -0.0030
      4 C         140.1423  137.3365  162.6956 C.ar    1  UNL1        0.0144
      5 C         140.9894  138.5091  162.2992 C.ar    1  UNL1        0.0505
      6 C         140.9499  139.7708  163.1093 C.ar    1  UNL1        0.0144
      7 C         140.0632  139.8600  164.3159 C.ar    1  UNL1       -0.0025
      8 C         140.0238  141.1218  165.1261 C.ar    1  UNL1        0.0072
      9 C         139.4981  142.3879  164.5171 C.ar    1  UNL1        0.0578
     10 C         139.4586  143.6497  165.3272 C.ar    1  UNL1        0.2261
     11 N         139.9448  143.6455  166.7463 N.ar    1  UNL1       -0.1967
     12 C         140.4704  142.3794  167.3552 C.ar    1  UNL1        0.1349
     13 C         140.5099  141.1176  166.5451 C.ar    1  UNL1        0.0345
     14 N         140.9566  142.3752  168.7742 N.pl3   1  UNL1       -0.2880
     15 C         142.4023  142.6412  169.0724 C.3     1  UNL1        0.1242
     16 C         142.8885  142.6370  170.4915 C.3     1  UNL1        0.1636
     17 O         141.9289  142.3667  171.6123 O.3     1  UNL1       -0.3501
     18 C         140.4831  142.1006  171.3140 C.3     1  UNL1        0.1636
     19 C         139.9970  142.1048  169.8950 C.3     1  UNL1        0.1242
     20 O         138.9330  144.9157  164.7183 O.3     1  UNL1       -0.4575
     21 C         138.6090  144.9658  163.2545 C.3     1  UNL1        0.2387
     22 C         139.6396  145.4422  162.2742 C.3     1  UNL1        0.1848
     23 O         140.7151  146.3893  162.7175 O.3     1  UNL1       -0.3784
     24 H         140.3169  147.2398  162.9606 H       1  UNL1        0.2106
     25 N         141.8761  138.4199  161.0926 N.am    1  UNL1       -0.2804
     26 C         141.3581  138.8387  159.7486 C.2     1  UNL1        0.2496
     27 O         139.9534  139.3466  159.6112 O.2     1  UNL1       -0.2698
     28 H         142.7981  138.0866  161.1828 H       1  UNL1        0.1552
     29 C         142.2448  138.7496  158.5421 C.ar    1  UNL1        0.0567
     30 C         142.9252  139.9798  158.0188 C.ar    1  UNL1        0.0252
     31 C         143.8118  139.8906  156.8122 C.ar    1  UNL1        0.0989
     32 N         144.0182  138.5713  156.1289 N.ar    1  UNL1       -0.2399
     33 C         143.3378  137.3412  156.6522 C.ar    1  UNL1        0.1528
     34 C         142.4512  137.4303  157.8588 C.ar    1  UNL1        0.0276
     35 C         143.5442  136.0219  155.9689 C.3     1  UNL1        0.4348
     36 F         143.7505  134.7026  155.2856 F       1  UNL1       -0.1644
     37 F         144.7773  136.5588  155.3047 F       1  UNL1       -0.1644
     38 F         142.3111  135.4850  156.6330 F       1  UNL1       -0.1644
@<TRIPOS>BOND
     1     1     2    1
     2     2     3   ar
     3     3     4   ar
     4     4     5   ar
     5     5    25    1
     6    25    26   am
     7    26    27    2
     8    26    29    1
     9    29    30   ar
    10    30    31   ar
    11    31    32   ar
    12    32    33   ar
    13    33    35    1
    14    35    36    1
    15    35    37    1
    16    35    38    1
    17    33    34   ar
    18     5     6   ar
    19     6     7   ar
    20     7     8    1
    21     8     9   ar
    22     9    10   ar
    23    10    20    1
    24    20    21    1
    25    21    22    1
    26    22    23    1
    27    10    11   ar
    28    11    12   ar
    29    12    14    1
    30    14    15    1
    31    15    16    1
    32    16    17    1
    33    17    18    1
    34    18    19    1
    35    12    13   ar
    36     7     2   ar
    37    13     8   ar
    38    34    29   ar
    39    19    14    1
    40    25    28    1
    41    23    24    1
@<TRIPOS>MOLECULE
*****
 38 41 0 0 0
SMALL
GASTEIGER

@<TRIPOS>ATOM
      1 C         138.7064  144.8280  164.7988 C.3     1  UNL1        0.0310
      2 C         139.6590  144.5462  163.6749 C.ar    1  UNL1       -0.0218
      3 C         139.8433  145.5524  162.5779 C.ar    1  UNL1       -0.0030
      4 C         140.7959  145.2706  161.4539 C.ar    1  UNL1        0.0144
      5 C         141.5641  143.9826  161.4270 C.ar    1  UNL1        0.0505
      6 C         141.3797  142.9764  162.5240 C.ar    1  UNL1        0.0144
      7 C         140.4272  143.2582  163.6479 C.ar    1  UNL1       -0.0025
      8 C         140.2429  142.2518  164.7450 C.ar    1  UNL1        0.0072
      9 C         139.5663  140.9444  164.4574 C.ar    1  UNL1        0.0578
     10 C         139.3819  139.9381  165.5543 C.ar    1  UNL1        0.2261
     11 N         139.8742  140.2392  166.9389 N.ar    1  UNL1       -0.1967
     12 C         140.5508  141.5467  167.2265 C.ar    1  UNL1        0.1349
     13 C         140.7351  142.5530  166.1295 C.ar    1  UNL1        0.0345
     14 N         141.0431  141.8479  168.6110 N.pl3   1  UNL1       -0.2880
     15 C         140.1840  141.5284  169.7984 C.3     1  UNL1        0.1242
     16 C         140.6763  141.8296  171.1830 C.3     1  UNL1        0.1636
     17 O         142.0276  142.4502  171.3801 O.3     1  UNL1       -0.3501
     18 C         142.8866  142.7697  170.1926 C.3     1  UNL1        0.1636
     19 C         142.3943  142.4685  168.8081 C.3     1  UNL1        0.1242
     20 O         138.7053  138.6306  165.2668 O.3     1  UNL1       -0.4575
     21 C         139.4866  137.4966  164.6723 C.3     1  UNL1        0.2387
     22 C         139.9634  137.5774  163.2524 C.3     1  UNL1        0.1848
     23 O         141.2110  136.8550  162.8379 O.3     1  UNL1       -0.3784
     24 H         141.9759  137.2460  163.2885 H       1  UNL1        0.2106
     25 N         142.5167  143.7008  160.3031 N.am    1  UNL1       -0.2804
     26 C         142.1035  142.7988  159.1781 C.2     1  UNL1        0.2496
     27 O         140.7377  142.1785  159.1770 O.2     1  UNL1       -0.2698
     28 H         143.4131  144.1079  160.3038 H       1  UNL1        0.1552
     29 C         143.0560  142.5170  158.0542 C.ar    1  UNL1        0.0567
     30 C         142.5342  142.0454  156.7292 C.ar    1  UNL1        0.0252
     31 C         143.4868  141.7636  155.6053 C.ar    1  UNL1        0.0989
     32 N         144.9611  141.9534  155.8063 N.ar    1  UNL1       -0.2399
     33 C         145.4829  142.4249  157.1312 C.ar    1  UNL1        0.1528
     34 C         144.5303  142.7067  158.2551 C.ar    1  UNL1        0.0276
     35 C         146.9571  142.6147  157.3321 C.3     1  UNL1        0.4348
     36 F         148.4315  142.8044  157.5331 F       1  UNL1       -0.1644
     37 F         146.6990  143.1705  158.7012 F       1  UNL1       -0.1644
     38 F         147.2153  142.0589  155.9631 F       1  UNL1       -0.1644
@<TRIPOS>BOND
     1     1     2    1
     2     2     3   ar
     3     3     4   ar
     4     4     5   ar
     5     5    25    1
     6    25    26   am
     7    26    27    2
     8    26    29    1
     9    29    30   ar
    10    30    31   ar
    11    31    32   ar
    12    32    33   ar
    13    33    35    1
    14    35    36    1
    15    35    37    1
    16    35    38    1
    17    33    34   ar
    18     5     6   ar
    19     6     7   ar
    20     7     8    1
    21     8     9   ar
    22     9    10   ar
    23    10    20    1
    24    20    21    1
    25    21    22    1
    26    22    23    1
    27    10    11   ar
    28    11    12   ar
    29    12    14    1
    30    14    15    1
    31    15    16    1
    32    16    17    1
    33    17    18    1
    34    18    19    1
    35    12    13   ar
    36     7     2   ar
    37    13     8   ar
    38    34    29   ar
    39    19    14    1
    40    25    28    1
    41    23    24    1
@<TRIPOS>MOLECULE
*****
 38 41 0 0 0
SMALL
GASTEIGER

@<TRIPOS>ATOM
      1 C         138.8709  137.5549  163.6943 C.3     1  UNL1        0.0310
      2 C         138.7779  138.7168  162.7501 C.ar    1  UNL1       -0.0218
      3 C         137.8551  138.6517  161.5694 C.ar    1  UNL1       -0.0030
      4 C         137.7621  139.8136  160.6252 C.ar    1  UNL1        0.0144
      5 C         138.5920  141.0405  160.8617 C.ar    1  UNL1        0.0505
      6 C         139.5149  141.1055  162.0424 C.ar    1  UNL1        0.0144
      7 C         139.6078  139.9436  162.9866 C.ar    1  UNL1       -0.0025
      8 C         140.5308  140.0087  164.1673 C.ar    1  UNL1        0.0072
      9 C         141.9312  139.4834  164.0544 C.ar    1  UNL1        0.0578
     10 C         142.8541  139.5484  165.2351 C.ar    1  UNL1        0.2261
     11 N         142.3766  140.1389  166.5287 N.ar    1  UNL1       -0.1967
     12 C         140.9761  140.6642  166.6416 C.ar    1  UNL1        0.1349
     13 C         140.0532  140.5991  165.4609 C.ar    1  UNL1        0.0345
     14 N         140.4986  141.2546  167.9352 N.pl3   1  UNL1       -0.2880
     15 C         139.6832  140.4252  168.8823 C.3     1  UNL1        0.1242
     16 C         139.2056  141.0156  170.1760 C.3     1  UNL1        0.1636
     17 O         139.5434  142.4354  170.5224 O.3     1  UNL1       -0.3501
     18 C         140.3589  143.2648  169.5751 C.3     1  UNL1        0.1636
     19 C         140.8364  142.6744  168.2816 C.3     1  UNL1        0.1242
     20 O         144.2546  139.0231  165.1222 O.3     1  UNL1       -0.4575
     21 C         145.2434  139.7099  164.2275 C.3     1  UNL1        0.2387
     22 C         145.1017  141.1748  163.9380 C.3     1  UNL1        0.1848
     23 O         146.2032  141.9101  163.2336 O.3     1  UNL1       -0.3784
     24 H         146.9908  141.9319  163.7995 H       1  UNL1        0.2106
     25 N         138.4991  142.2023  159.9175 N.am    1  UNL1       -0.2804
     26 C         139.4606  142.3165  158.7720 C.2     1  UNL1        0.2496
     27 O         140.5151  141.2689  158.5705 O.2     1  UNL1       -0.2698
     28 H         137.8070  142.8899  160.0498 H       1  UNL1        0.1552
     29 C         139.3677  143.4784  157.8278 C.ar    1  UNL1        0.0567
     30 C         140.2251  144.6902  158.0431 C.ar    1  UNL1        0.0252
     31 C         140.1321  145.8521  157.0989 C.ar    1  UNL1        0.0989
     32 N         139.1818  145.8021  155.9394 N.ar    1  UNL1       -0.2399
     33 C         138.3244  144.5903  155.7241 C.ar    1  UNL1        0.1528
     34 C         138.4173  143.4284  156.6683 C.ar    1  UNL1        0.0276
     35 C         137.3741  144.5403  154.5647 C.3     1  UNL1        0.4348
     36 F         136.4237  144.4904  153.4052 F       1  UNL1       -0.1644
     37 F         137.4940  143.0455  154.5309 F       1  UNL1       -0.1644
     38 F         137.2542  146.0351  154.5985 F       1  UNL1       -0.1644
@<TRIPOS>BOND
     1     1     2    1
     2     2     3   ar
     3     3     4   ar
     4     4     5   ar
     5     5    25    1
     6    25    26   am
     7    26    27    2
     8    26    29    1
     9    29    30   ar
    10    30    31   ar
    11    31    32   ar
    12    32    33   ar
    13    33    35    1
    14    35    36    1
    15    35    37    1
    16    35    38    1
    17    33    34   ar
    18     5     6   ar
    19     6     7   ar
    20     7     8    1
    21     8     9   ar
    22     9    10   ar
    23    10    20    1
    24    20    21    1
    25    21    22    1
    26    22    23    1
    27    10    11   ar
    28    11    12   ar
    29    12    14    1
    30    14    15    1
    31    15    16    1
    32    16    17    1
    33    17    18    1
    34    18    19    1
    35    12    13   ar
    36     7     2   ar
    37    13     8   ar
    38    34    29   ar
    39    19    14    1
    40    25    28    1
    41    23    24    1
@<TRIPOS>MOLECULE
*****
 38 41 0 0 0
SMALL
GASTEIGER

@<TRIPOS>ATOM
      1 C         144.4587  142.0951  164.8510 C.3     1  UNL1        0.0310
      2 C         143.9158  141.2028  163.7743 C.ar    1  UNL1       -0.0218
      3 C         144.8541  140.4108  162.9127 C.ar    1  UNL1       -0.0030
      4 C         144.3113  139.5185  161.8361 C.ar    1  UNL1        0.0144
      5 C         142.8302  139.4181  161.6211 C.ar    1  UNL1        0.0505
      6 C         141.8919  140.2101  162.4827 C.ar    1  UNL1        0.0144
      7 C         142.4348  141.1024  163.5593 C.ar    1  UNL1       -0.0025
      8 C         141.4964  141.8943  164.4210 C.ar    1  UNL1        0.0072
      9 C         140.7121  143.0283  163.8303 C.ar    1  UNL1        0.0578
     10 C         139.7738  143.8203  164.6918 C.ar    1  UNL1        0.2261
     11 N         139.6197  143.4783  166.1442 N.ar    1  UNL1       -0.1967
     12 C         140.4040  142.3443  166.7349 C.ar    1  UNL1        0.1349
     13 C         141.3424  141.5523  165.8733 C.ar    1  UNL1        0.0345
     14 N         140.2499  142.0022  168.1872 N.pl3   1  UNL1       -0.2880
     15 C         139.9943  140.5831  168.6005 C.3     1  UNL1        0.1242
     16 C         139.8402  140.2410  170.0528 C.3     1  UNL1        0.1636
     17 O         139.9418  141.3180  171.0919 O.3     1  UNL1       -0.3501
     18 C         140.1975  142.7372  170.6786 C.3     1  UNL1        0.1636
     19 C         140.3516  143.0792  169.2263 C.3     1  UNL1        0.1242
     20 O         138.9896  144.9543  164.1011 O.3     1  UNL1       -0.4575
     21 C         138.8995  145.1082  162.6117 C.3     1  UNL1        0.2387
     22 C         139.7402  146.1344  161.9116 C.3     1  UNL1        0.1848
     23 O         139.1125  147.0681  160.9195 O.3     1  UNL1       -0.3784
     24 H         138.8007  146.5629  160.1524 H       1  UNL1        0.2106
     25 N         142.2874  138.5258  160.5445 N.am    1  UNL1       -0.2804
     26 C         142.3571  138.9548  159.1089 C.2     1  UNL1        0.2496
     27 O         142.9696  140.2761  158.7498 O.2     1  UNL1       -0.2698
     28 H         141.8854  137.6586  160.7801 H       1  UNL1        0.1552
     29 C         141.8143  138.0625  158.0322 C.ar    1  UNL1        0.0567
     30 C         140.4224  138.2734  157.5142 C.ar    1  UNL1        0.0252
     31 C         139.8796  137.3811  156.4376 C.ar    1  UNL1        0.0989
     32 N         140.7286  136.2778  155.8790 N.ar    1  UNL1       -0.2399
     33 C         142.1204  136.0669  156.3970 C.ar    1  UNL1        0.1528
     34 C         142.6632  136.9592  157.4736 C.ar    1  UNL1        0.0276
     35 C         142.9694  134.9637  155.8384 C.3     1  UNL1        0.4348
     36 F         143.8184  133.8604  155.2797 F       1  UNL1       -0.1644
     37 F         143.1092  134.3761  157.2114 F       1  UNL1       -0.1644
     38 F         142.8295  135.5513  154.4654 F       1  UNL1       -0.1644
@<TRIPOS>BOND
     1     1     2    1
     2     2     3   ar
     3     3     4   ar
     4     4     5   ar
     5     5    25    1
     6    25    26   am
     7    26    27    2
     8    26    29    1
     9    29    30   ar
    10    30    31   ar
    11    31    32   ar
    12    32    33   ar
    13    33    35    1
    14    35    36    1
    15    35    37    1
    16    35    38    1
    17    33    34   ar
    18     5     6   ar
    19     6     7   ar
    20     7     8    1
    21     8     9   ar
    22     9    10   ar
    23    10    20    1
    24    20    21    1
    25    21    22    1
    26    22    23    1
    27    10    11   ar
    28    11    12   ar
    29    12    14    1
    30    14    15    1
    31    15    16    1
    32    16    17    1
    33    17    18    1
    34    18    19    1
    35    12    13   ar
    36     7     2   ar
    37    13     8   ar
    38    34    29   ar
    39    19    14    1
    40    25    28    1
    41    23    24    1
@<TRIPOS>MOLECULE
*****
 38 41 0 0 0
SMALL
GASTEIGER

@<TRIPOS>ATOM
      1 C         139.9391  141.9889  154.0230 C.3     1  UNL1        0.0310
      2 C         138.4617  141.8486  154.2410 C.ar    1  UNL1       -0.0218
      3 C         137.6975  140.7719  153.5292 C.ar    1  UNL1       -0.0030
      4 C         136.2201  140.6315  153.7472 C.ar    1  UNL1        0.0144
      5 C         135.5068  141.5678  154.6770 C.ar    1  UNL1        0.0505
      6 C         136.2710  142.6445  155.3888 C.ar    1  UNL1        0.0144
      7 C         137.7485  142.7849  155.1708 C.ar    1  UNL1       -0.0025
      8 C         138.5127  143.8617  155.8826 C.ar    1  UNL1        0.0072
      9 C         139.2938  143.5338  157.1205 C.ar    1  UNL1        0.0578
     10 C         140.0580  144.6105  157.8323 C.ar    1  UNL1        0.2261
     11 N         140.0411  146.0151  157.3062 N.ar    1  UNL1       -0.1967
     12 C         139.2600  146.3431  156.0683 C.ar    1  UNL1        0.1349
     13 C         138.4957  145.2663  155.3565 C.ar    1  UNL1        0.0345
     14 N         139.2430  147.7476  155.5423 N.pl3   1  UNL1       -0.2880
     15 C         139.8810  148.0616  154.2216 C.3     1  UNL1        0.1242
     16 C         139.8641  149.4662  153.6954 C.3     1  UNL1        0.1636
     17 O         139.2092  150.5569  154.4901 O.3     1  UNL1       -0.3501
     18 C         138.5711  150.2429  155.8109 C.3     1  UNL1        0.1636
     19 C         138.5881  148.8383  156.3370 C.3     1  UNL1        0.1242
     20 O         140.8391  144.2826  159.0702 O.3     1  UNL1       -0.4575
     21 C         141.0764  145.3383  160.1089 C.3     1  UNL1        0.2387
     22 C         139.9743  145.7259  161.0498 C.3     1  UNL1        0.1848
     23 O         140.2498  146.6776  162.1761 O.3     1  UNL1       -0.3784
     24 H         140.8627  146.2655  162.8049 H       1  UNL1        0.2106
     25 N         134.0294  141.4275  154.8950 N.am    1  UNL1       -0.2804
     26 C         133.5140  140.5517  155.9983 C.2     1  UNL1        0.2496
     27 O         134.4759  139.8162  156.8836 O.2     1  UNL1       -0.2698
     28 H         133.3981  141.9102  154.3140 H       1  UNL1        0.1552
     29 C         132.0365  140.4113  156.2163 C.ar    1  UNL1        0.0567
     30 C         131.0851  141.3468  155.5309 C.ar    1  UNL1        0.0252
     31 C         129.6077  141.2064  155.7489 C.ar    1  UNL1        0.0989
     32 N         129.0817  140.1306  156.6524 N.ar    1  UNL1       -0.2399
     33 C         130.0332  139.1953  157.3377 C.ar    1  UNL1        0.1528
     34 C         131.5106  139.3356  157.1197 C.ar    1  UNL1        0.0276
     35 C         129.5072  138.1195  158.2411 C.3     1  UNL1        0.4348
     36 F         128.9812  137.0437  159.1444 F       1  UNL1       -0.1644
     37 F         129.3342  139.1264  159.3393 F       1  UNL1       -0.1644
     38 F         129.6802  137.1127  157.1428 F       1  UNL1       -0.1644
@<TRIPOS>BOND
     1     1     2    1
     2     2     3   ar
     3     3     4   ar
     4     4     5   ar
     5     5    25    1
     6    25    26   am
     7    26    27    2
     8    26    29    1
     9    29    30   ar
    10    30    31   ar
    11    31    32   ar
    12    32    33   ar
    13    33    35    1
    14    35    36    1
    15    35    37    1
    16    35    38    1
    17    33    34   ar
    18     5     6   ar
    19     6     7   ar
    20     7     8    1
    21     8     9   ar
    22     9    10   ar
    23    10    20    1
    24    20    21    1
    25    21    22    1
    26    22    23    1
    27    10    11   ar
    28    11    12   ar
    29    12    14    1
    30    14    15    1
    31    15    16    1
    32    16    17    1
    33    17    18    1
    34    18    19    1
    35    12    13   ar
    36     7     2   ar
    37    13     8   ar
    38    34    29   ar
    39    19    14    1
    40    25    28    1
    41    23    24    1
@<TRIPOS>MOLECULE
*****
 38 41 0 0 0
SMALL
GASTEIGER

@<TRIPOS>ATOM
      1 C         140.9906  138.8932  159.5760 C.3     1  UNL1        0.0310
      2 C         141.3573  138.9230  161.0302 C.ar    1  UNL1       -0.0218
      3 C         140.9144  137.8143  161.9382 C.ar    1  UNL1       -0.0030
      4 C         141.2811  137.8440  163.3924 C.ar    1  UNL1        0.0144
      5 C         142.0907  138.9825  163.9386 C.ar    1  UNL1        0.0505
      6 C         142.5336  140.0912  163.0305 C.ar    1  UNL1        0.0144
      7 C         142.1669  140.0614  161.5763 C.ar    1  UNL1       -0.0025
      8 C         142.6099  141.1702  160.6683 C.ar    1  UNL1        0.0072
      9 C         142.0673  142.5559  160.8567 C.ar    1  UNL1        0.0578
     10 C         142.5102  143.6647  159.9488 C.ar    1  UNL1        0.2261
     11 N         143.4958  143.3877  158.8523 N.ar    1  UNL1       -0.1967
     12 C         144.0383  142.0021  158.6639 C.ar    1  UNL1        0.1349
     13 C         143.5953  140.8933  159.5719 C.ar    1  UNL1        0.0345
     14 N         145.0237  141.7251  157.5675 N.pl3   1  UNL1       -0.2880
     15 C         144.8020  140.5727  156.6333 C.3     1  UNL1        0.1242
     16 C         145.7875  140.2957  155.5368 C.3     1  UNL1        0.1636
     17 O         146.9947  141.1712  155.3746 O.3     1  UNL1       -0.3501
     18 C         147.2164  142.3236  156.3089 C.3     1  UNL1        0.1636
     19 C         146.2309  142.6006  157.4053 C.3     1  UNL1        0.1242
     20 O         141.9677  145.0504  160.1372 O.3     1  UNL1       -0.4575
     21 C         140.4854  145.2760  160.1806 C.3     1  UNL1        0.2387
     22 C         139.8414  145.7901  161.4340 C.3     1  UNL1        0.1848
     23 O         140.6883  146.3624  162.5319 O.3     1  UNL1       -0.3784
     24 H         141.2437  145.6628  162.9100 H       1  UNL1        0.2106
     25 N         142.4574  139.0123  165.3927 N.am    1  UNL1       -0.2804
     26 C         142.0881  140.1971  166.2352 C.2     1  UNL1        0.2496
     27 O         141.3520  141.3522  165.6235 O.2     1  UNL1       -0.2698
     28 H         142.9404  138.2542  165.7942 H       1  UNL1        0.1552
     29 C         142.4548  140.2269  167.6894 C.ar    1  UNL1        0.0567
     30 C         142.4636  138.9564  168.4868 C.ar    1  UNL1        0.0252
     31 C         142.8303  138.9862  169.9410 C.ar    1  UNL1        0.0989
     32 N         143.1881  140.2865  170.5978 N.ar    1  UNL1       -0.2399
     33 C         143.1792  141.5569  169.8004 C.ar    1  UNL1        0.1528
     34 C         142.8125  141.5271  168.3462 C.ar    1  UNL1        0.0276
     35 C         143.5370  142.8571  170.4571 C.3     1  UNL1        0.4348
     36 F         143.8949  144.1574  171.1139 F       1  UNL1       -0.1644
     37 F         142.0864  143.1138  170.7393 F       1  UNL1       -0.1644
     38 F         144.9877  142.6004  170.1750 F       1  UNL1       -0.1644
@<TRIPOS>BOND
     1     1     2    1
     2     2     3   ar
     3     3     4   ar
     4     4     5   ar
     5     5    25    1
     6    25    26   am
     7    26    27    2
     8    26    29    1
     9    29    30   ar
    10    30    31   ar
    11    31    32   ar
    12    32    33   ar
    13    33    35    1
    14    35    36    1
    15    35    37    1
    16    35    38    1
    17    33    34   ar
    18     5     6   ar
    19     6     7   ar
    20     7     8    1
    21     8     9   ar
    22     9    10   ar
    23    10    20    1
    24    20    21    1
    25    21    22    1
    26    22    23    1
    27    10    11   ar
    28    11    12   ar
    29    12    14    1
    30    14    15    1
    31    15    16    1
    32    16    17    1
    33    17    18    1
    34    18    19    1
    35    12    13   ar
    36     7     2   ar
    37    13     8   ar
    38    34    29   ar
    39    19    14    1
    40    25    28    1
    41    23    24    1
@<TRIPOS>MOLECULE
*****
 38 41 0 0 0
SMALL
GASTEIGER

@<TRIPOS>ATOM
      1 C         145.1468  141.7894  164.0405 C.3     1  UNL1        0.0310
      2 C         144.2718  142.0834  162.8581 C.ar    1  UNL1       -0.0218
      3 C         144.8657  142.6746  161.6141 C.ar    1  UNL1       -0.0030
      4 C         143.9907  142.9686  160.4318 C.ar    1  UNL1        0.0144
      5 C         142.5218  142.6713  160.4934 C.ar    1  UNL1        0.0505
      6 C         141.9279  142.0801  161.7375 C.ar    1  UNL1        0.0144
      7 C         142.8029  141.7861  162.9198 C.ar    1  UNL1       -0.0025
      8 C         142.2089  141.1948  164.1639 C.ar    1  UNL1        0.0072
      9 C         141.5598  139.8434  164.1160 C.ar    1  UNL1        0.0578
     10 C         140.9658  139.2521  165.3599 C.ar    1  UNL1        0.2261
     11 N         141.0209  140.0123  166.6520 N.ar    1  UNL1       -0.1967
     12 C         141.6700  141.3637  166.6999 C.ar    1  UNL1        0.1349
     13 C         142.2640  141.9550  165.4558 C.ar    1  UNL1        0.0345
     14 N         141.7252  142.1239  167.9918 N.pl3   1  UNL1       -0.2880
     15 C         140.5387  142.9232  168.4429 C.3     1  UNL1        0.1242
     16 C         140.5938  143.6834  169.7348 C.3     1  UNL1        0.1636
     17 O         141.8354  143.6442  170.5757 O.3     1  UNL1       -0.3501
     18 C         143.0218  142.8449  170.1245 C.3     1  UNL1        0.1636
     19 C         142.9667  142.0847  168.8326 C.3     1  UNL1        0.1242
     20 O         140.3167  137.9007  165.3120 O.3     1  UNL1       -0.4575
     21 C         138.9605  137.7417  164.6913 C.3     1  UNL1        0.2387
     22 C         138.8214  137.6780  163.1991 C.3     1  UNL1        0.1848
     23 O         138.3863  138.8926  162.4339 O.3     1  UNL1       -0.3784
     24 H         137.4728  139.1152  162.6728 H       1  UNL1        0.2106
     25 N         141.6468  142.9653  159.3111 N.am    1  UNL1       -0.2804
     26 C         141.2183  144.3744  159.0271 C.2     1  UNL1        0.2496
     27 O         141.6648  145.4897  159.9255 O.2     1  UNL1       -0.2698
     28 H         141.3538  142.2334  158.7215 H       1  UNL1        0.1552
     29 C         140.3433  144.6684  157.8447 C.ar    1  UNL1        0.0567
     30 C         139.6799  143.5448  157.1048 C.ar    1  UNL1        0.0252
     31 C         138.8049  143.8387  155.9225 C.ar    1  UNL1        0.0989
     32 N         138.5933  145.2564  155.4801 N.ar    1  UNL1       -0.2399
     33 C         139.2566  146.3799  156.2200 C.ar    1  UNL1        0.1528
     34 C         140.1316  146.0859  157.4023 C.ar    1  UNL1        0.0276
     35 C         139.0450  147.7974  155.7776 C.3     1  UNL1        0.4348
     36 F         138.8333  149.2151  155.3352 F       1  UNL1       -0.1644
     37 F         139.3783  147.4073  154.3681 F       1  UNL1       -0.1644
     38 F         138.7117  148.1876  157.1870 F       1  UNL1       -0.1644
@<TRIPOS>BOND
     1     1     2    1
     2     2     3   ar
     3     3     4   ar
     4     4     5   ar
     5     5    25    1
     6    25    26   am
     7    26    27    2
     8    26    29    1
     9    29    30   ar
    10    30    31   ar
    11    31    32   ar
    12    32    33   ar
    13    33    35    1
    14    35    36    1
    15    35    37    1
    16    35    38    1
    17    33    34   ar
    18     5     6   ar
    19     6     7   ar
    20     7     8    1
    21     8     9   ar
    22     9    10   ar
    23    10    20    1
    24    20    21    1
    25    21    22    1
    26    22    23    1
    27    10    11   ar
    28    11    12   ar
    29    12    14    1
    30    14    15    1
    31    15    16    1
    32    16    17    1
    33    17    18    1
    34    18    19    1
    35    12    13   ar
    36     7     2   ar
    37    13     8   ar
    38    34    29   ar
    39    19    14    1
    40    25    28    1
    41    23    24    1
@<TRIPOS>MOLECULE
*****
 38 41 0 0 0
SMALL
GASTEIGER

@<TRIPOS>ATOM
      1 C         139.9661  137.9819  164.5479 C.3     1  UNL1        0.0310
      2 C         139.3330  138.6604  163.3694 C.ar    1  UNL1       -0.0218
      3 C         138.5255  137.8623  162.3892 C.ar    1  UNL1       -0.0030
      4 C         137.8923  138.5407  161.2107 C.ar    1  UNL1        0.0144
      5 C         138.0668  140.0172  161.0124 C.ar    1  UNL1        0.0505
      6 C         138.8743  140.8153  161.9926 C.ar    1  UNL1        0.0144
      7 C         139.5074  140.1369  163.1711 C.ar    1  UNL1       -0.0025
      8 C         140.3150  140.9351  164.1514 C.ar    1  UNL1        0.0072
      9 C         141.5251  141.6902  163.6872 C.ar    1  UNL1        0.0578
     10 C         142.3327  142.4883  164.6674 C.ar    1  UNL1        0.2261
     11 N         141.9302  142.5314  166.1118 N.ar    1  UNL1       -0.1967
     12 C         140.7201  141.7763  166.5759 C.ar    1  UNL1        0.1349
     13 C         139.9125  140.9781  165.5957 C.ar    1  UNL1        0.0345
     14 N         140.3175  141.8193  168.0202 N.pl3   1  UNL1       -0.2880
     15 C         139.7277  140.6034  168.6709 C.3     1  UNL1        0.1242
     16 C         139.3251  140.6464  170.1153 C.3     1  UNL1        0.1636
     17 O         139.5124  141.9054  170.9089 O.3     1  UNL1       -0.3501
     18 C         140.1023  143.1214  170.2581 C.3     1  UNL1        0.1636
     19 C         140.5048  143.0783  168.8138 C.3     1  UNL1        0.1242
     20 O         143.5428  143.2434  164.2032 O.3     1  UNL1       -0.4575
     21 C         144.1903  142.8925  162.8965 C.3     1  UNL1        0.2387
     22 C         145.0867  141.6935  162.8018 C.3     1  UNL1        0.1848
     23 O         146.5307  141.8040  163.1927 O.3     1  UNL1       -0.3784
     24 H         146.9880  142.3976  162.5768 H       1  UNL1        0.2106
     25 N         137.4337  140.6957  159.8339 N.am    1  UNL1       -0.2804
     26 C         138.2143  140.8808  158.5665 C.2     1  UNL1        0.2496
     27 O         139.6281  140.3874  158.4776 O.2     1  UNL1       -0.2698
     28 H         136.5058  141.0195  159.8923 H       1  UNL1        0.1552
     29 C         137.5812  141.5592  157.3880 C.ar    1  UNL1        0.0567
     30 C         136.4563  140.8919  156.6535 C.ar    1  UNL1        0.0252
     31 C         135.8232  141.5703  155.4750 C.ar    1  UNL1        0.0989
     32 N         136.3149  142.9161  155.0310 N.ar    1  UNL1       -0.2399
     33 C         137.4397  143.5834  155.7654 C.ar    1  UNL1        0.1528
     34 C         138.0729  142.9049  156.9439 C.ar    1  UNL1        0.0276
     35 C         137.9314  144.9291  155.3214 C.3     1  UNL1        0.4348
     36 F         138.4232  146.2749  154.8773 F       1  UNL1       -0.1644
     37 F         136.8614  144.9735  154.2712 F       1  UNL1       -0.1644
     38 F         139.0015  144.8846  156.3716 F       1  UNL1       -0.1644
@<TRIPOS>BOND
     1     1     2    1
     2     2     3   ar
     3     3     4   ar
     4     4     5   ar
     5     5    25    1
     6    25    26   am
     7    26    27    2
     8    26    29    1
     9    29    30   ar
    10    30    31   ar
    11    31    32   ar
    12    32    33   ar
    13    33    35    1
    14    35    36    1
    15    35    37    1
    16    35    38    1
    17    33    34   ar
    18     5     6   ar
    19     6     7   ar
    20     7     8    1
    21     8     9   ar
    22     9    10   ar
    23    10    20    1
    24    20    21    1
    25    21    22    1
    26    22    23    1
    27    10    11   ar
    28    11    12   ar
    29    12    14    1
    30    14    15    1
    31    15    16    1
    32    16    17    1
    33    17    18    1
    34    18    19    1
    35    12    13   ar
    36     7     2   ar
    37    13     8   ar
    38    34    29   ar
    39    19    14    1
    40    25    28    1
    41    23    24    1
@<TRIPOS>MOLECULE
*****
 38 41 0 0 0
SMALL
GASTEIGER

@<TRIPOS>ATOM
      1 C         138.3135  142.1643  158.3881 C.3     1  UNL1        0.0310
      2 C         138.8460  140.8266  157.9673 C.ar    1  UNL1       -0.0218
      3 C         138.7043  140.3770  156.5434 C.ar    1  UNL1       -0.0030
      4 C         139.2368  139.0393  156.1226 C.ar    1  UNL1        0.0144
      5 C         139.9110  138.1512  157.1259 C.ar    1  UNL1        0.0505
      6 C         140.0527  138.6007  158.5499 C.ar    1  UNL1        0.0144
      7 C         139.5202  139.9384  158.9706 C.ar    1  UNL1       -0.0025
      8 C         139.6620  140.3879  160.3947 C.ar    1  UNL1        0.0072
      9 C         138.7870  139.7949  161.4589 C.ar    1  UNL1        0.0578
     10 C         138.9287  140.2444  162.8830 C.ar    1  UNL1        0.2261
     11 N         139.9455  141.2869  163.2428 N.ar    1  UNL1       -0.1967
     12 C         140.8205  141.8799  162.1785 C.ar    1  UNL1        0.1349
     13 C         140.6787  141.4304  160.7544 C.ar    1  UNL1        0.0345
     14 N         141.8372  142.9224  162.5382 N.pl3   1  UNL1       -0.2880
     15 C         141.4177  144.1517  163.2884 C.3     1  UNL1        0.1242
     16 C         142.4345  145.1943  163.6482 C.3     1  UNL1        0.1636
     17 O         143.8707  145.0075  163.2577 O.3     1  UNL1       -0.3501
     18 C         144.2901  143.7781  162.5075 C.3     1  UNL1        0.1636
     19 C         143.2734  142.7356  162.1478 C.3     1  UNL1        0.1242
     20 O         138.0537  139.6513  163.9472 O.3     1  UNL1       -0.4575
     21 C         138.6699  138.9289  165.1084 C.3     1  UNL1        0.2387
     22 C         138.0628  139.0499  166.4747 C.3     1  UNL1        0.1848
     23 O         137.1643  137.9670  166.9947 O.3     1  UNL1       -0.3784
     24 H         136.3556  137.9334  166.4601 H       1  UNL1        0.2106
     25 N         140.4435  136.8135  156.7051 N.am    1  UNL1       -0.2804
     26 C         141.9213  136.6100  156.5484 C.2     1  UNL1        0.2496
     27 O         142.8667  137.7443  156.8125 O.2     1  UNL1       -0.2698
     28 H         139.8230  136.0690  156.5318 H       1  UNL1        0.1552
     29 C         142.4538  135.2723  156.1277 C.ar    1  UNL1        0.0567
     30 C         141.9959  134.6541  154.8400 C.ar    1  UNL1        0.0252
     31 C         142.5284  133.3164  154.4192 C.ar    1  UNL1        0.0989
     32 N         143.5188  132.5969  155.2862 N.ar    1  UNL1       -0.2399
     33 C         143.9766  133.2152  156.5739 C.ar    1  UNL1        0.1528
     34 C         143.4441  134.5529  156.9946 C.ar    1  UNL1        0.0276
     35 C         144.9669  132.4957  157.4408 C.3     1  UNL1        0.4348
     36 F         145.9573  131.7763  158.3078 F       1  UNL1       -0.1644
     37 F         145.2860  131.5678  156.3063 F       1  UNL1       -0.1644
     38 F         144.6479  133.4236  158.5753 F       1  UNL1       -0.1644
@<TRIPOS>BOND
     1     1     2    1
     2     2     3   ar
     3     3     4   ar
     4     4     5   ar
     5     5    25    1
     6    25    26   am
     7    26    27    2
     8    26    29    1
     9    29    30   ar
    10    30    31   ar
    11    31    32   ar
    12    32    33   ar
    13    33    35    1
    14    35    36    1
    15    35    37    1
    16    35    38    1
    17    33    34   ar
    18     5     6   ar
    19     6     7   ar
    20     7     8    1
    21     8     9   ar
    22     9    10   ar
    23    10    20    1
    24    20    21    1
    25    21    22    1
    26    22    23    1
    27    10    11   ar
    28    11    12   ar
    29    12    14    1
    30    14    15    1
    31    15    16    1
    32    16    17    1
    33    17    18    1
    34    18    19    1
    35    12    13   ar
    36     7     2   ar
    37    13     8   ar
    38    34    29   ar
    39    19    14    1
    40    25    28    1
    41    23    24    1
