@<TRIPOS>MOLECULE
*****
 19 20 0 0 0
SMALL
GASTEIGER

@<TRIPOS>ATOM
      1 C         139.9302  143.0282  166.5701 C.2     1  UNL1        0.0001
      2 C         141.1574  142.4559  167.2154 C.2     1  UNL1        0.0045
      3 C         141.0654  141.8227  168.5721 C.ar    1  UNL1        0.0549
      4 C         141.2513  140.3418  168.7228 C.ar    1  UNL1        0.1422
      5 F         141.5293  139.4943  167.5168 F       1  UNL1       -0.2041
      6 C         141.1593  139.7086  170.0795 C.ar    1  UNL1        0.0298
      7 C         140.8813  140.5562  171.2855 C.ar    1  UNL1        0.0046
      8 C         140.6954  142.0370  171.1347 C.ar    1  UNL1        0.0298
      9 C         140.7874  142.6702  169.7781 C.ar    1  UNL1        0.1422
     10 F         140.6014  144.1510  169.6274 F       1  UNL1       -0.2041
     11 C         140.2063  144.9278  162.5001 C.ar    1  UNL1        0.0479
     12 C         138.8732  144.7865  163.1729 C.ar    1  UNL1        0.0145
     13 C         138.7811  144.1533  164.5296 C.ar    1  UNL1        0.0013
     14 C         140.0222  143.6614  165.2134 C.ar    1  UNL1        0.0001
     15 C         141.3554  143.8027  164.5405 C.ar    1  UNL1        0.0013
     16 C         141.4474  144.4359  163.1839 C.ar    1  UNL1        0.0145
     17 C         141.2844  145.0426  160.1390 C.3     1  UNL1        0.1122
     18 N         140.2983  145.5611  161.1434 N.pl3   1  UNL1       -0.3041
     19 C         139.4042  146.7128  160.7911 C.3     1  UNL1        0.1122
@<TRIPOS>BOND
     1    17    18    1
     2    18    19    1
     3    18    11    1
     4    11    12   ar
     5    12    13   ar
     6    13    14   ar
     7    14     1    1
     8     1     2    2
     9     2     3    1
    10     3     4   ar
    11     4     5    1
    12     4     6   ar
    13     6     7   ar
    14     7     8   ar
    15     8     9   ar
    16     9    10    1
    17    14    15   ar
    18    15    16   ar
    19    16    11   ar
    20     9     3   ar
@<TRIPOS>MOLECULE
*****
 19 20 0 0 0
SMALL
GASTEIGER

@<TRIPOS>ATOM
      1 C         140.6926  142.5958  166.6344 C.2     1  UNL1        0.0001
      2 C         142.0289  142.2339  167.2117 C.2     1  UNL1        0.0045
      3 C         142.1085  141.5158  168.5262 C.ar    1  UNL1        0.0549
      4 C         141.8173  142.2507  169.8011 C.ar    1  UNL1        0.1422
      5 F         141.4465  143.7035  169.7614 F       1  UNL1       -0.2041
      6 C         141.8969  141.5326  171.1156 C.ar    1  UNL1        0.0298
      7 C         142.2677  140.0796  171.1553 C.ar    1  UNL1        0.0046
      8 C         142.5588  139.3448  169.8804 C.ar    1  UNL1        0.0298
      9 C         142.4792  140.0629  168.5659 C.ar    1  UNL1        0.1422
     10 F         142.7704  139.3281  167.2911 F       1  UNL1       -0.2041
     11 C         140.4538  144.7500  162.6908 C.ar    1  UNL1        0.0479
     12 C         141.7491  144.1362  163.1329 C.ar    1  UNL1        0.0145
     13 C         141.8287  143.4182  164.4475 C.ar    1  UNL1        0.0013
     14 C         140.6130  143.3138  165.3199 C.ar    1  UNL1        0.0001
     15 C         139.3177  143.9276  164.8778 C.ar    1  UNL1        0.0013
     16 C         139.2381  144.6457  163.5632 C.ar    1  UNL1        0.0145
     17 C         141.2149  145.0124  160.2206 C.3     1  UNL1        0.1122
     18 N         140.3742  145.4681  161.3763 N.pl3   1  UNL1       -0.3041
     19 C         139.4539  146.6419  161.2174 C.3     1  UNL1        0.1122
@<TRIPOS>BOND
     1    17    18    1
     2    18    19    1
     3    18    11    1
     4    11    12   ar
     5    12    13   ar
     6    13    14   ar
     7    14     1    1
     8     1     2    2
     9     2     3    1
    10     3     4   ar
    11     4     5    1
    12     4     6   ar
    13     6     7   ar
    14     7     8   ar
    15     8     9   ar
    16     9    10    1
    17    14    15   ar
    18    15    16   ar
    19    16    11   ar
    20     9     3   ar
@<TRIPOS>MOLECULE
*****
 19 20 0 0 0
SMALL
GASTEIGER

@<TRIPOS>ATOM
      1 C         140.2375  142.9834  166.4439 C.2     1  UNL1        0.0001
      2 C         140.7731  141.6616  166.9085 C.2     1  UNL1        0.0045
      3 C         140.8595  141.3612  168.3755 C.ar    1  UNL1        0.0549
      4 C         141.9604  141.9598  169.2001 C.ar    1  UNL1        0.1422
      5 F         142.9747  142.8588  168.5576 F       1  UNL1       -0.2041
      6 C         142.0469  141.6594  170.6672 C.ar    1  UNL1        0.0298
      7 C         141.0325  140.7603  171.3097 C.ar    1  UNL1        0.0046
      8 C         139.9317  140.1617  170.4851 C.ar    1  UNL1        0.0298
      9 C         139.8452  140.4621  169.0181 C.ar    1  UNL1        0.1422
     10 F         138.7444  139.8636  168.1935 F       1  UNL1       -0.2041
     11 C         139.9781  143.8847  162.0427 C.ar    1  UNL1        0.0479
     12 C         140.6786  142.6450  162.5144 C.ar    1  UNL1        0.0145
     13 C         140.7650  142.3446  163.9815 C.ar    1  UNL1        0.0013
     14 C         140.1511  143.2838  164.9768 C.ar    1  UNL1        0.0001
     15 C         139.4507  144.5235  164.5051 C.ar    1  UNL1        0.0013
     16 C         139.3642  144.8239  163.0381 C.ar    1  UNL1        0.0145
     17 C         140.3729  145.5052  160.0508 C.3     1  UNL1        0.1122
     18 N         139.8917  144.1851  160.5756 N.pl3   1  UNL1       -0.3041
     19 C         139.3239  143.1654  159.6334 C.3     1  UNL1        0.1122
@<TRIPOS>BOND
     1    17    18    1
     2    18    19    1
     3    18    11    1
     4    11    12   ar
     5    12    13   ar
     6    13    14   ar
     7    14     1    1
     8     1     2    2
     9     2     3    1
    10     3     4   ar
    11     4     5    1
    12     4     6   ar
    13     6     7   ar
    14     7     8   ar
    15     8     9   ar
    16     9    10    1
    17    14    15   ar
    18    15    16   ar
    19    16    11   ar
    20     9     3   ar
@<TRIPOS>MOLECULE
*****
 19 20 0 0 0
SMALL
GASTEIGER

@<TRIPOS>ATOM
      1 C         140.1970  142.9740  166.4278 C.2     1  UNL1        0.0001
      2 C         140.7803  141.6738  166.8958 C.2     1  UNL1        0.0045
      3 C         140.8561  141.3706  168.3629 C.ar    1  UNL1        0.0549
      4 C         139.8360  140.4718  168.9967 C.ar    1  UNL1        0.1422
      5 F         138.7403  139.8761  168.1633 F       1  UNL1       -0.2041
      6 C         139.9118  140.1686  170.4638 C.ar    1  UNL1        0.0298
      7 C         141.0076  140.7643  171.2971 C.ar    1  UNL1        0.0046
      8 C         142.0276  141.6632  170.6633 C.ar    1  UNL1        0.0298
      9 C         141.9518  141.9663  169.1962 C.ar    1  UNL1        0.1422
     10 F         142.9718  142.8651  168.5625 F       1  UNL1       -0.2041
     11 C         139.9697  143.8835  162.0265 C.ar    1  UNL1        0.0479
     12 C         140.7325  142.6843  162.5062 C.ar    1  UNL1        0.0145
     13 C         140.8083  142.3812  163.9733 C.ar    1  UNL1        0.0013
     14 C         140.1213  143.2772  164.9607 C.ar    1  UNL1        0.0001
     15 C         139.3585  144.4764  164.4811 C.ar    1  UNL1        0.0013
     16 C         139.2827  144.7795  163.0140 C.ar    1  UNL1        0.0145
     17 C         140.3592  145.5160  160.0433 C.3     1  UNL1        0.1122
     18 N         139.8940  144.1867  160.5594 N.pl3   1  UNL1       -0.3041
     19 C         139.3530  143.1605  159.6085 C.3     1  UNL1        0.1122
@<TRIPOS>BOND
     1    17    18    1
     2    18    19    1
     3    18    11    1
     4    11    12   ar
     5    12    13   ar
     6    13    14   ar
     7    14     1    1
     8     1     2    2
     9     2     3    1
    10     3     4   ar
    11     4     5    1
    12     4     6   ar
    13     6     7   ar
    14     7     8   ar
    15     8     9   ar
    16     9    10    1
    17    14    15   ar
    18    15    16   ar
    19    16    11   ar
    20     9     3   ar
@<TRIPOS>MOLECULE
*****
 19 20 0 0 0
SMALL
GASTEIGER

@<TRIPOS>ATOM
      1 C         141.7315  142.4655  165.9982 C.2     1  UNL1        0.0001
      2 C         140.4881  142.2767  166.8157 C.2     1  UNL1        0.0045
      3 C         140.5876  141.7875  168.2302 C.ar    1  UNL1        0.0549
      4 C         140.3972  142.7442  169.3698 C.ar    1  UNL1        0.1422
      5 F         140.1074  144.1900  169.0948 F       1  UNL1       -0.2041
      6 C         140.4966  142.2550  170.7843 C.ar    1  UNL1        0.0298
      7 C         140.7865  140.8092  171.0592 C.ar    1  UNL1        0.0046
      8 C         140.9768  139.8526  169.9197 C.ar    1  UNL1        0.0298
      9 C         140.8774  140.3417  168.5052 C.ar    1  UNL1        0.1422
     10 F         141.0677  139.3851  167.3656 F       1  UNL1       -0.2041
     11 C         141.4331  143.9330  161.7547 C.ar    1  UNL1        0.0479
     12 C         141.1716  142.4899  162.0694 C.ar    1  UNL1        0.0145
     13 C         141.2711  142.0008  163.4839 C.ar    1  UNL1        0.0013
     14 C         141.6320  142.9547  164.5837 C.ar    1  UNL1        0.0001
     15 C         141.8935  144.3978  164.2691 C.ar    1  UNL1        0.0013
     16 C         141.7941  144.8870  162.8546 C.ar    1  UNL1        0.0145
     17 C         140.3395  145.4871  159.9831 C.3     1  UNL1        0.1122
     18 N         141.3337  144.4222  160.3402 N.pl3   1  UNL1       -0.3041
     19 C         142.2284  143.8465  159.2829 C.3     1  UNL1        0.1122
@<TRIPOS>BOND
     1    17    18    1
     2    18    19    1
     3    18    11    1
     4    11    12   ar
     5    12    13   ar
     6    13    14   ar
     7    14     1    1
     8     1     2    2
     9     2     3    1
    10     3     4   ar
    11     4     5    1
    12     4     6   ar
    13     6     7   ar
    14     7     8   ar
    15     8     9   ar
    16     9    10    1
    17    14    15   ar
    18    15    16   ar
    19    16    11   ar
    20     9     3   ar
@<TRIPOS>MOLECULE
*****
 19 20 0 0 0
SMALL
GASTEIGER

@<TRIPOS>ATOM
      1 C         141.8615  142.6909  166.1858 C.2     1  UNL1        0.0001
      2 C         140.6386  142.1917  166.8966 C.2     1  UNL1        0.0045
      3 C         140.7306  141.7494  168.3270 C.ar    1  UNL1        0.0549
      4 C         141.1048  140.3335  168.6515 C.ar    1  UNL1        0.1422
      5 F         141.3871  139.3600  167.5458 F       1  UNL1       -0.2041
      6 C         141.1968  139.8912  170.0819 C.ar    1  UNL1        0.0298
      7 C         140.9146  140.8647  171.1876 C.ar    1  UNL1        0.0046
      8 C         140.5404  142.2805  170.8630 C.ar    1  UNL1        0.0298
      9 C         140.4484  142.7229  169.4327 C.ar    1  UNL1        0.1422
     10 F         140.0742  144.1387  169.1081 F       1  UNL1       -0.2041
     11 C         141.5856  144.0179  161.8948 C.ar    1  UNL1        0.0479
     12 C         142.8019  144.3520  162.7064 C.ar    1  UNL1        0.0145
     13 C         142.8939  143.9096  164.1367 C.ar    1  UNL1        0.0013
     14 C         141.7695  143.1332  164.7555 C.ar    1  UNL1        0.0001
     15 C         140.5532  142.7991  163.9439 C.ar    1  UNL1        0.0013
     16 C         140.4612  143.2415  162.5135 C.ar    1  UNL1        0.0145
     17 C         140.5271  145.5387  160.0736 C.3     1  UNL1        0.1122
     18 N         141.4936  144.4603  160.4645 N.pl3   1  UNL1       -0.3041
     19 C         142.3681  143.8242  159.4250 C.3     1  UNL1        0.1122
@<TRIPOS>BOND
     1    17    18    1
     2    18    19    1
     3    18    11    1
     4    11    12   ar
     5    12    13   ar
     6    13    14   ar
     7    14     1    1
     8     1     2    2
     9     2     3    1
    10     3     4   ar
    11     4     5    1
    12     4     6   ar
    13     6     7   ar
    14     7     8   ar
    15     8     9   ar
    16     9    10    1
    17    14    15   ar
    18    15    16   ar
    19    16    11   ar
    20     9     3   ar
@<TRIPOS>MOLECULE
*****
 19 20 0 0 0
SMALL
GASTEIGER

@<TRIPOS>ATOM
      1 C         139.7683  141.1774  164.2664 C.2     1  UNL1        0.0001
      2 C         138.4884  141.5595  163.5839 C.2     1  UNL1        0.0045
      3 C         138.3569  141.4081  162.0974 C.ar    1  UNL1        0.0549
      4 C         138.6365  142.5749  161.1970 C.ar    1  UNL1        0.1422
      5 F         139.0476  143.8929  161.7832 F       1  UNL1       -0.2041
      6 C         138.5050  142.4235  159.7105 C.ar    1  UNL1        0.0298
      7 C         138.0939  141.1053  159.1243 C.ar    1  UNL1        0.0046
      8 C         137.8144  139.9386  160.0246 C.ar    1  UNL1        0.0298
      9 C         137.9459  140.0900  161.5112 C.ar    1  UNL1        0.1422
     10 F         137.6663  138.9234  162.4115 F       1  UNL1       -0.2041
     11 C         140.1628  141.6316  168.7260 C.ar    1  UNL1        0.0479
     12 C         140.5643  142.7569  167.8191 C.ar    1  UNL1        0.0145
     13 C         140.4328  142.6055  166.3325 C.ar    1  UNL1        0.0013
     14 C         139.8998  141.3288  165.7529 C.ar    1  UNL1        0.0001
     15 C         139.4984  140.2036  166.6598 C.ar    1  UNL1        0.0013
     16 C         139.6299  140.3549  168.1464 C.ar    1  UNL1        0.0145
     17 C         141.0665  140.7697  171.0042 C.3     1  UNL1        0.1122
     18 N         140.2943  141.7830  170.2125 N.pl3   1  UNL1       -0.3041
     19 C         139.6537  142.9477  170.9074 C.3     1  UNL1        0.1122
@<TRIPOS>BOND
     1    17    18    1
     2    18    19    1
     3    18    11    1
     4    11    12   ar
     5    12    13   ar
     6    13    14   ar
     7    14     1    1
     8     1     2    2
     9     2     3    1
    10     3     4   ar
    11     4     5    1
    12     4     6   ar
    13     6     7   ar
    14     7     8   ar
    15     8     9   ar
    16     9    10    1
    17    14    15   ar
    18    15    16   ar
    19    16    11   ar
    20     9     3   ar
@<TRIPOS>MOLECULE
*****
 19 20 0 0 0
SMALL
GASTEIGER

@<TRIPOS>ATOM
      1 C         139.6901  140.8518  166.2973 C.2     1  UNL1        0.0001
      2 C         141.0394  141.2822  166.7915 C.2     1  UNL1        0.0045
      3 C         141.3749  141.1702  168.2492 C.ar    1  UNL1        0.0549
      4 C         140.8914  142.2137  169.2124 C.ar    1  UNL1        0.1422
      5 F         140.0725  143.3689  168.7178 F       1  UNL1       -0.2041
      6 C         141.2269  142.1018  170.6701 C.ar    1  UNL1        0.0298
      7 C         142.0459  140.9464  171.1646 C.ar    1  UNL1        0.0046
      8 C         142.5294  139.9031  170.2015 C.ar    1  UNL1        0.0298
      9 C         142.1938  140.0150  168.7438 C.ar    1  UNL1        0.1422
     10 F         142.6773  138.9716  167.7806 F       1  UNL1       -0.2041
     11 C         138.6836  141.1876  161.9241 C.ar    1  UNL1        0.0479
     12 C         137.6326  141.4610  162.9588 C.ar    1  UNL1        0.0145
     13 C         137.9681  141.3491  164.4165 C.ar    1  UNL1        0.0013
     14 C         139.3546  140.9637  164.8395 C.ar    1  UNL1        0.0001
     15 C         140.4056  140.6903  163.8049 C.ar    1  UNL1        0.0013
     16 C         140.0701  140.8022  162.3472 C.ar    1  UNL1        0.0145
     17 C         137.7909  140.1162  159.7321 C.3     1  UNL1        0.1122
     18 N         138.3481  141.2995  160.4664 N.pl3   1  UNL1       -0.3041
     19 C         138.5697  142.5947  159.7431 C.3     1  UNL1        0.1122
@<TRIPOS>BOND
     1    17    18    1
     2    18    19    1
     3    18    11    1
     4    11    12   ar
     5    12    13   ar
     6    13    14   ar
     7    14     1    1
     8     1     2    2
     9     2     3    1
    10     3     4   ar
    11     4     5    1
    12     4     6   ar
    13     6     7   ar
    14     7     8   ar
    15     8     9   ar
    16     9    10    1
    17    14    15   ar
    18    15    16   ar
    19    16    11   ar
    20     9     3   ar
@<TRIPOS>MOLECULE
*****
 19 20 0 0 0
SMALL
GASTEIGER

@<TRIPOS>ATOM
      1 C         142.4952  139.8680  166.2932 C.2     1  UNL1        0.0001
      2 C         141.5925  140.9799  166.7391 C.2     1  UNL1        0.0045
      3 C         141.3931  141.2431  168.2023 C.ar    1  UNL1        0.0549
      4 C         142.3780  142.0894  168.9531 C.ar    1  UNL1        0.1422
      5 F         143.5623  142.6725  168.2408 F       1  UNL1       -0.2041
      6 C         142.1786  142.3526  170.4164 C.ar    1  UNL1        0.0298
      7 C         140.9942  141.7694  171.1287 C.ar    1  UNL1        0.0046
      8 C         140.0094  140.9232  170.3778 C.ar    1  UNL1        0.0298
      9 C         140.2088  140.6600  168.9146 C.ar    1  UNL1        0.1422
     10 F         139.2240  139.8137  168.1637 F       1  UNL1       -0.2041
     11 C         143.0935  139.0785  161.9036 C.ar    1  UNL1        0.0479
     12 C         143.5684  140.3677  162.5053 C.ar    1  UNL1        0.0145
     13 C         143.3690  140.6309  163.9685 C.ar    1  UNL1        0.0013
     14 C         142.6946  139.6048  164.8300 C.ar    1  UNL1        0.0001
     15 C         142.2196  138.3155  164.2283 C.ar    1  UNL1        0.0013
     16 C         142.4191  138.0523  162.7651 C.ar    1  UNL1        0.0145
     17 C         143.8315  139.8960  159.5506 C.3     1  UNL1        0.1122
     18 N         143.2929  138.8153  160.4404 N.pl3   1  UNL1       -0.3041
     19 C         142.9537  137.4714  159.8671 C.3     1  UNL1        0.1122
@<TRIPOS>BOND
     1    17    18    1
     2    18    19    1
     3    18    11    1
     4    11    12   ar
     5    12    13   ar
     6    13    14   ar
     7    14     1    1
     8     1     2    2
     9     2     3    1
    10     3     4   ar
    11     4     5    1
    12     4     6   ar
    13     6     7   ar
    14     7     8   ar
    15     8     9   ar
    16     9    10    1
    17    14    15   ar
    18    15    16   ar
    19    16    11   ar
    20     9     3   ar
