@<TRIPOS>MOLECULE
*****
 34 39 0 0 0
SMALL
GASTEIGER

@<TRIPOS>ATOM
      1 C         140.1792  140.8158  161.8721 C.3     1  UNL1        0.0339
      2 C         140.6082  141.6329  163.0546 C.ar    1  UNL1        0.0095
      3 C         141.4063  142.8863  162.8502 C.ar    1  UNL1        0.0730
      4 C         141.8354  143.7035  164.0327 C.ar    1  UNL1        0.1531
      5 F         142.6335  144.9570  163.8283 F       1  UNL1       -0.2029
      6 C         141.4663  143.2671  165.4195 C.ar    1  UNL1        0.0324
      7 C         140.6682  142.0137  165.6239 C.ar    1  UNL1        0.0211
      8 C         140.2991  141.5773  167.0108 C.ar    1  UNL1        0.0435
      9 C         139.5010  140.3238  167.2152 C.ar    1  UNL1        0.0639
     10 C         139.0719  139.5067  166.0327 C.ar    1  UNL1        0.2610
     11 O         138.2738  138.2532  166.2371 O.2     1  UNL1       -0.2670
     12 N         139.4410  139.9430  164.6459 N.ar    1  UNL1       -0.2976
     13 C         140.2392  141.1965  164.4414 C.ar    1  UNL1        0.0598
     14 C         140.7281  142.3944  168.1933 C.ar    1  UNL1        0.1804
     15 C         141.9692  142.1817  169.0084 C.ar    1  UNL1        0.1007
     16 C         141.9995  143.2235  170.0872 C.ar    1  UNL1        0.2610
     17 O         143.0651  143.3810  171.1310 O.3     1  UNL1       -0.4900
     18 N         140.7772  144.0802  169.9387 N.ar    1  UNL1       -0.0390
     19 O         139.9915  143.5677  168.7682 O.2     1  UNL1       -0.3504
     20 H         143.7965  142.7955  171.1461 H       1  UNL1        0.2938
     21 N         141.7754  143.3227  161.4633 N.pl3   1  UNL1       -0.3059
     22 C         142.9849  142.8824  160.6931 C.3     1  UNL1        0.0909
     23 C         142.9569  143.5635  159.3570 C.3     1  UNL1        0.0244
     24 C         141.7301  144.4249  159.3015 C.3     1  UNL1        0.0344
     25 C         140.9999  144.2760  160.6033 C.3     1  UNL1        0.0921
     26 C         141.3076  145.2842  158.1469 C.3     1  UNL1        0.0406
     27 N         142.5270  146.1459  158.0036 N.3     1  UNL1       -0.3231
     28 C         140.4616  145.8442  157.0420 C.3     1  UNL1        0.0156
     29 C         139.9415  144.7209  157.8892 C.3     1  UNL1        0.0156
     30 H         143.2162  145.8792  158.7066 H       1  UNL1        0.1188
     31 H         142.2692  147.1241  158.1341 H       1  UNL1        0.1188
     32 C         139.0120  139.1259  163.4634 C.3     1  UNL1        0.0885
     33 C         139.2652  138.0074  162.4966 C.3     1  UNL1        0.0246
     34 C         138.0156  138.8292  162.3821 C.3     1  UNL1        0.0246
@<TRIPOS>BOND
     1     1     2    1
     2     2     3   ar
     3     3    21    1
     4    21    22    1
     5    22    23    1
     6    23    24    1
     7    24    26    1
     8    26    27    1
     9    26    28    1
    10    28    29    1
    11    24    25    1
    12     3     4   ar
    13     4     5    1
    14     4     6   ar
    15     6     7   ar
    16     7     8   ar
    17     8    14    1
    18    14    15   ar
    19    15    16   ar
    20    16    17    1
    21    16    18   ar
    22    18    19   ar
    23     8     9   ar
    24     9    10   ar
    25    10    11    2
    26    10    12   ar
    27    12    32    1
    28    32    33    1
    29    33    34    1
    30    12    13   ar
    31    13     2   ar
    32    25    21    1
    33    13     7   ar
    34    29    26    1
    35    19    14   ar
    36    34    32    1
    37    27    30    1
    38    27    31    1
    39    17    20    1
@<TRIPOS>MOLECULE
*****
 34 39 0 0 0
SMALL
GASTEIGER

@<TRIPOS>ATOM
      1 C         142.1797  140.7980  162.0337 C.3     1  UNL1        0.0339
      2 C         141.8095  141.5957  163.2489 C.ar    1  UNL1        0.0095
      3 C         141.1600  142.9390  163.0951 C.ar    1  UNL1        0.0730
      4 C         140.7898  143.7366  164.3103 C.ar    1  UNL1        0.1531
      5 F         140.1403  145.0800  164.1564 F       1  UNL1       -0.2029
      6 C         141.0691  143.1910  165.6793 C.ar    1  UNL1        0.0324
      7 C         141.7185  141.8477  165.8331 C.ar    1  UNL1        0.0211
      8 C         141.9978  141.3020  167.2022 C.ar    1  UNL1        0.0435
      9 C         142.6473  139.9587  167.3560 C.ar    1  UNL1        0.0639
     10 C         143.0175  139.1611  166.1408 C.ar    1  UNL1        0.2610
     11 O         143.6670  137.8177  166.2947 O.2     1  UNL1       -0.2670
     12 N         142.7382  139.7067  164.7718 N.ar    1  UNL1       -0.2976
     13 C         142.0887  141.0501  164.6179 C.ar    1  UNL1        0.0598
     14 C         141.6276  142.0997  168.4174 C.ar    1  UNL1        0.1804
     15 C         140.2721  142.1536  169.0574 C.ar    1  UNL1        0.1007
     16 C         140.3547  143.0707  170.2415 C.ar    1  UNL1        0.2610
     17 O         139.2284  143.4145  171.1706 O.3     1  UNL1       -0.4900
     18 N         141.7612  143.5837  170.3332 N.ar    1  UNL1       -0.0390
     19 O         142.5479  142.9836  169.2059 O.2     1  UNL1       -0.3504
     20 H         138.3788  143.0437  171.0343 H       1  UNL1        0.2938
     21 N         140.8807  143.4847  161.7260 N.pl3   1  UNL1       -0.3059
     22 C         139.5288  143.6231  161.0910 C.3     1  UNL1        0.0909
     23 C         139.7168  144.2117  159.7241 C.3     1  UNL1        0.0244
     24 C         141.1849  144.4370  159.5144 C.3     1  UNL1        0.0344
     25 C         141.9042  143.9877  160.7516 C.3     1  UNL1        0.0921
     26 C         141.8219  145.0109  158.2836 C.3     1  UNL1        0.0406
     27 N         143.1455  144.3062  158.3226 N.3     1  UNL1       -0.3231
     28 C         141.9991  145.8295  157.0392 C.3     1  UNL1        0.0156
     29 C         140.7195  145.9148  157.8172 C.3     1  UNL1        0.0156
     30 H         143.1804  143.6932  159.1371 H       1  UNL1        0.1188
     31 H         143.8956  144.9948  158.3828 H       1  UNL1        0.1188
     32 C         143.1084  138.9090  163.5566 C.3     1  UNL1        0.0885
     33 C         142.7458  137.9089  162.4992 C.3     1  UNL1        0.0246
     34 C         144.1122  138.5275  162.5094 C.3     1  UNL1        0.0246
@<TRIPOS>BOND
     1     1     2    1
     2     2     3   ar
     3     3    21    1
     4    21    22    1
     5    22    23    1
     6    23    24    1
     7    24    26    1
     8    26    27    1
     9    26    28    1
    10    28    29    1
    11    24    25    1
    12     3     4   ar
    13     4     5    1
    14     4     6   ar
    15     6     7   ar
    16     7     8   ar
    17     8    14    1
    18    14    15   ar
    19    15    16   ar
    20    16    17    1
    21    16    18   ar
    22    18    19   ar
    23     8     9   ar
    24     9    10   ar
    25    10    11    2
    26    10    12   ar
    27    12    32    1
    28    32    33    1
    29    33    34    1
    30    12    13   ar
    31    13     2   ar
    32    25    21    1
    33    13     7   ar
    34    29    26    1
    35    19    14   ar
    36    34    32    1
    37    27    30    1
    38    27    31    1
    39    17    20    1
@<TRIPOS>MOLECULE
*****
 34 39 0 0 0
SMALL
GASTEIGER

@<TRIPOS>ATOM
      1 C         141.0366  139.9237  164.4686 C.3     1  UNL1        0.0339
      2 C         141.2119  141.2035  163.7062 C.ar    1  UNL1        0.0095
      3 C         141.5403  142.4723  164.4358 C.ar    1  UNL1        0.0730
      4 C         141.7156  143.7521  163.6734 C.ar    1  UNL1        0.1531
      5 F         142.0439  145.0209  164.4031 F       1  UNL1       -0.2029
      6 C         141.5625  143.7632  162.1813 C.ar    1  UNL1        0.0324
      7 C         141.2342  142.4945  161.4516 C.ar    1  UNL1        0.0211
      8 C         141.0811  142.5055  159.9595 C.ar    1  UNL1        0.0435
      9 C         140.7528  141.2368  159.2298 C.ar    1  UNL1        0.0639
     10 C         140.5775  139.9570  159.9922 C.ar    1  UNL1        0.2610
     11 O         140.2491  138.6882  159.2625 O.2     1  UNL1       -0.2670
     12 N         140.7305  139.9459  161.4843 N.ar    1  UNL1       -0.2976
     13 C         141.0589  141.2146  162.2141 C.ar    1  UNL1        0.0598
     14 C         141.2564  143.7854  159.1970 C.ar    1  UNL1        0.1804
     15 C         140.1623  144.5870  158.5565 C.ar    1  UNL1        0.1007
     16 C         140.7863  145.7854  157.9049 C.ar    1  UNL1        0.2610
     17 O         140.0583  146.8566  157.1483 O.3     1  UNL1       -0.4900
     18 N         142.2661  145.7243  158.1426 N.ar    1  UNL1       -0.0390
     19 O         142.5566  144.4882  158.9412 O.2     1  UNL1       -0.3504
     20 H         139.1275  146.8110  157.0504 H       1  UNL1        0.2938
     21 N         141.6933  142.4612  165.9280 N.pl3   1  UNL1       -0.3059
     22 C         142.9721  142.2447  166.6816 C.3     1  UNL1        0.0909
     23 C         142.6637  142.3144  168.1478 C.3     1  UNL1        0.0244
     24 C         141.1942  142.5740  168.3005 C.3     1  UNL1        0.0344
     25 C         140.5945  142.6648  166.9286 C.3     1  UNL1        0.0921
     26 C         140.4543  142.7177  169.5974 C.3     1  UNL1        0.0406
     27 N         140.9236  144.0796  170.0155 N.3     1  UNL1       -0.3231
     28 C         139.5514  142.3884  170.7490 C.3     1  UNL1        0.0156
     29 C         139.7280  141.4057  169.6296 C.3     1  UNL1        0.0156
     30 H         141.5647  144.4487  169.3133 H       1  UNL1        0.1188
     31 H         141.4040  144.0130  170.9129 H       1  UNL1        0.1188
     32 C         140.5552  138.6660  162.2468 C.3     1  UNL1        0.0885
     33 C         141.1443  137.4432  162.8852 C.3     1  UNL1        0.0246
     34 C         139.6625  137.6722  162.9288 C.3     1  UNL1        0.0246
@<TRIPOS>BOND
     1     1     2    1
     2     2     3   ar
     3     3    21    1
     4    21    22    1
     5    22    23    1
     6    23    24    1
     7    24    26    1
     8    26    27    1
     9    26    28    1
    10    28    29    1
    11    24    25    1
    12     3     4   ar
    13     4     5    1
    14     4     6   ar
    15     6     7   ar
    16     7     8   ar
    17     8    14    1
    18    14    15   ar
    19    15    16   ar
    20    16    17    1
    21    16    18   ar
    22    18    19   ar
    23     8     9   ar
    24     9    10   ar
    25    10    11    2
    26    10    12   ar
    27    12    32    1
    28    32    33    1
    29    33    34    1
    30    12    13   ar
    31    13     2   ar
    32    25    21    1
    33    13     7   ar
    34    29    26    1
    35    19    14   ar
    36    34    32    1
    37    27    30    1
    38    27    31    1
    39    17    20    1
@<TRIPOS>MOLECULE
*****
 34 39 0 0 0
SMALL
GASTEIGER

@<TRIPOS>ATOM
      1 C         142.3555  142.5687  164.7092 C.3     1  UNL1        0.0339
      2 C         142.1061  141.4176  163.7803 C.ar    1  UNL1        0.0095
      3 C         141.9453  140.0314  164.3302 C.ar    1  UNL1        0.0730
      4 C         141.6959  138.8803  163.4013 C.ar    1  UNL1        0.1531
      5 F         141.5351  137.4940  163.9512 F       1  UNL1       -0.2029
      6 C         141.6074  139.1155  161.9225 C.ar    1  UNL1        0.0324
      7 C         141.7682  140.5017  161.3726 C.ar    1  UNL1        0.0211
      8 C         141.6797  140.7370  159.8938 C.ar    1  UNL1        0.0435
      9 C         141.8405  142.1232  159.3439 C.ar    1  UNL1        0.0639
     10 C         142.0899  143.2743  160.2728 C.ar    1  UNL1        0.2610
     11 O         142.2507  144.6606  159.7229 O.2     1  UNL1       -0.2670
     12 N         142.1784  143.0391  161.7516 N.ar    1  UNL1       -0.2976
     13 C         142.0176  141.6528  162.3015 C.ar    1  UNL1        0.0598
     14 C         141.4303  139.5859  158.9649 C.ar    1  UNL1        0.1804
     15 C         140.0892  139.1105  158.4903 C.ar    1  UNL1        0.1007
     16 C         140.3083  137.9389  157.5796 C.ar    1  UNL1        0.2610
     17 O         139.2386  137.1538  156.8800 O.3     1  UNL1       -0.4900
     18 N         141.7849  137.6902  157.4913 N.ar    1  UNL1       -0.0390
     19 O         142.4783  138.7081  158.3475 O.2     1  UNL1       -0.3504
     20 H         138.3375  137.3835  156.9955 H       1  UNL1        0.2938
     21 N         142.0338  139.7961  165.8090 N.pl3   1  UNL1       -0.3059
     22 C         143.1971  139.1908  166.5374 C.3     1  UNL1        0.0909
     23 C         142.8569  139.1455  167.9976 C.3     1  UNL1        0.0244
     24 C         141.4834  139.7228  168.1717 C.3     1  UNL1        0.0344
     25 C         140.9747  140.1249  166.8190 C.3     1  UNL1        0.0921
     26 C         140.7477  139.8718  169.4704 C.3     1  UNL1        0.0406
     27 N         141.7316  139.2290  170.4023 N.3     1  UNL1       -0.3231
     28 C         139.6703  140.2441  170.4453 C.3     1  UNL1        0.0156
     29 C         139.5082  140.5664  168.9893 C.3     1  UNL1        0.0156
     30 H         142.5448  138.9136  169.8735 H       1  UNL1        0.1188
     31 H         141.2936  138.4301  170.8610 H       1  UNL1        0.1188
     32 C         142.4278  144.1902  162.6805 C.3     1  UNL1        0.0885
     33 C         143.3823  145.0656  163.4371 C.3     1  UNL1        0.0246
     34 C         141.9052  145.3084  163.5327 C.3     1  UNL1        0.0246
@<TRIPOS>BOND
     1     1     2    1
     2     2     3   ar
     3     3    21    1
     4    21    22    1
     5    22    23    1
     6    23    24    1
     7    24    26    1
     8    26    27    1
     9    26    28    1
    10    28    29    1
    11    24    25    1
    12     3     4   ar
    13     4     5    1
    14     4     6   ar
    15     6     7   ar
    16     7     8   ar
    17     8    14    1
    18    14    15   ar
    19    15    16   ar
    20    16    17    1
    21    16    18   ar
    22    18    19   ar
    23     8     9   ar
    24     9    10   ar
    25    10    11    2
    26    10    12   ar
    27    12    32    1
    28    32    33    1
    29    33    34    1
    30    12    13   ar
    31    13     2   ar
    32    25    21    1
    33    13     7   ar
    34    29    26    1
    35    19    14   ar
    36    34    32    1
    37    27    30    1
    38    27    31    1
    39    17    20    1
@<TRIPOS>MOLECULE
*****
 34 39 0 0 0
SMALL
GASTEIGER

@<TRIPOS>ATOM
      1 C         139.8983  141.5491  164.6614 C.3     1  UNL1        0.0339
      2 C         141.1023  141.4285  163.7749 C.ar    1  UNL1        0.0095
      3 C         142.4160  140.9887  164.3500 C.ar    1  UNL1        0.0730
      4 C         143.6200  140.8681  163.4635 C.ar    1  UNL1        0.1531
      5 F         144.9338  140.4282  164.0386 F       1  UNL1       -0.2029
      6 C         143.5103  141.1873  162.0020 C.ar    1  UNL1        0.0324
      7 C         142.1966  141.6271  161.4270 C.ar    1  UNL1        0.0211
      8 C         142.0869  141.9463  159.9654 C.ar    1  UNL1        0.0435
      9 C         140.7732  142.3861  159.3903 C.ar    1  UNL1        0.0639
     10 C         139.5692  142.5067  160.2768 C.ar    1  UNL1        0.2610
     11 O         138.2554  142.9465  159.7017 O.2     1  UNL1       -0.2670
     12 N         139.6789  142.1875  161.7383 N.ar    1  UNL1       -0.2976
     13 C         140.9926  141.7477  162.3134 C.ar    1  UNL1        0.0598
     14 C         143.2909  141.8257  159.0789 C.ar    1  UNL1        0.1804
     15 C         143.6517  140.6366  158.2387 C.ar    1  UNL1        0.1007
     16 C         144.9293  140.9490  157.5175 C.ar    1  UNL1        0.2610
     17 O         145.6512  140.0390  156.5685 O.3     1  UNL1       -0.4900
     18 N         145.3582  142.3312  157.9120 N.ar    1  UNL1       -0.0390
     19 O         144.3456  142.8730  158.8770 O.2     1  UNL1       -0.3504
     20 H         145.3062  139.1882  156.3813 H       1  UNL1        0.2938
     21 N         142.5257  140.6694  165.8115 N.pl3   1  UNL1       -0.3059
     22 C         142.6378  139.2979  166.4084 C.3     1  UNL1        0.0909
     23 C         142.7240  139.4464  167.8986 C.3     1  UNL1        0.0244
     24 C         142.6652  140.9099  168.2226 C.3     1  UNL1        0.0344
     25 C         142.5427  141.6657  166.9328 C.3     1  UNL1        0.0921
     26 C         142.7194  141.5118  169.5955 C.3     1  UNL1        0.0406
     27 N         143.4609  140.4308  170.3247 N.3     1  UNL1       -0.3231
     28 C         142.5161  142.4891  170.7151 C.3     1  UNL1        0.0156
     29 C         141.9968  142.8017  169.3430 C.3     1  UNL1        0.0156
     30 H         143.6775  139.6718  169.6786 H       1  UNL1        0.1188
     31 H         142.8820  140.0751  171.0854 H       1  UNL1        0.1188
     32 C         138.4748  142.3081  162.6247 C.3     1  UNL1        0.0885
     33 C         137.2577  141.6966  163.2529 C.3     1  UNL1        0.0246
     34 C         137.6066  143.1285  163.5319 C.3     1  UNL1        0.0246
@<TRIPOS>BOND
     1     1     2    1
     2     2     3   ar
     3     3    21    1
     4    21    22    1
     5    22    23    1
     6    23    24    1
     7    24    26    1
     8    26    27    1
     9    26    28    1
    10    28    29    1
    11    24    25    1
    12     3     4   ar
    13     4     5    1
    14     4     6   ar
    15     6     7   ar
    16     7     8   ar
    17     8    14    1
    18    14    15   ar
    19    15    16   ar
    20    16    17    1
    21    16    18   ar
    22    18    19   ar
    23     8     9   ar
    24     9    10   ar
    25    10    11    2
    26    10    12   ar
    27    12    32    1
    28    32    33    1
    29    33    34    1
    30    12    13   ar
    31    13     2   ar
    32    25    21    1
    33    13     7   ar
    34    29    26    1
    35    19    14   ar
    36    34    32    1
    37    27    30    1
    38    27    31    1
    39    17    20    1
@<TRIPOS>MOLECULE
*****
 34 39 0 0 0
SMALL
GASTEIGER

@<TRIPOS>ATOM
      1 C         140.5370  142.5445  164.5740 C.3     1  UNL1        0.0339
      2 C         140.6771  141.3514  163.6757 C.ar    1  UNL1        0.0095
      3 C         140.2810  139.9911  164.1682 C.ar    1  UNL1        0.0730
      4 C         140.4212  138.7981  163.2699 C.ar    1  UNL1        0.1531
      5 F         140.0250  137.4377  163.7625 F       1  UNL1       -0.2029
      6 C         140.9575  138.9653  161.8791 C.ar    1  UNL1        0.0324
      7 C         141.3536  140.3256  161.3866 C.ar    1  UNL1        0.0211
      8 C         141.8900  140.4929  159.9958 C.ar    1  UNL1        0.0435
      9 C         142.2861  141.8532  159.5033 C.ar    1  UNL1        0.0639
     10 C         142.1459  143.0463  160.4016 C.ar    1  UNL1        0.2610
     11 O         142.5421  144.4067  159.9090 O.2     1  UNL1       -0.2670
     12 N         141.6096  142.8790  161.7924 N.ar    1  UNL1       -0.2976
     13 C         141.2134  141.5187  162.2849 C.ar    1  UNL1        0.0598
     14 C         142.0301  139.2999  159.0975 C.ar    1  UNL1        0.1804
     15 C         140.9470  138.7035  158.2482 C.ar    1  UNL1        0.1007
     16 C         141.5255  137.5287  157.5165 C.ar    1  UNL1        0.2610
     17 O         140.7921  136.6398  156.5564 O.3     1  UNL1       -0.4900
     18 N         142.9662  137.3990  157.9136 N.ar    1  UNL1       -0.0390
     19 O         143.2780  138.4936  158.8907 O.2     1  UNL1       -0.3504
     20 H         139.8880  136.7983  156.3684 H       1  UNL1        0.2938
     21 N         139.7447  139.8238  165.5591 N.pl3   1  UNL1       -0.3059
     22 C         138.3857  139.3038  165.9233 C.3     1  UNL1        0.0909
     23 C         138.2742  139.3057  167.4192 C.3     1  UNL1        0.0244
     24 C         139.5644  139.8270  167.9794 C.3     1  UNL1        0.0344
     25 C         140.4731  140.1472  166.8298 C.3     1  UNL1        0.0921
     26 C         139.8888  139.9981  169.4339 C.3     1  UNL1        0.0406
     27 N         138.5030  140.0801  170.0019 N.3     1  UNL1       -0.3231
     28 C         140.6945  140.1406  170.6910 C.3     1  UNL1        0.0156
     29 C         141.3873  139.9754  169.3709 C.3     1  UNL1        0.0156
     30 H         137.8210  139.9967  169.2480 H       1  UNL1        0.1188
     31 H         138.3811  140.9767  170.4729 H       1  UNL1        0.1188
     32 C         141.4694  144.0721  162.6907 C.3     1  UNL1        0.0885
     33 C         140.6228  145.1582  163.2852 C.3     1  UNL1        0.0246
     34 C         142.0733  145.0524  163.6520 C.3     1  UNL1        0.0246
@<TRIPOS>BOND
     1     1     2    1
     2     2     3   ar
     3     3    21    1
     4    21    22    1
     5    22    23    1
     6    23    24    1
     7    24    26    1
     8    26    27    1
     9    26    28    1
    10    28    29    1
    11    24    25    1
    12     3     4   ar
    13     4     5    1
    14     4     6   ar
    15     6     7   ar
    16     7     8   ar
    17     8    14    1
    18    14    15   ar
    19    15    16   ar
    20    16    17    1
    21    16    18   ar
    22    18    19   ar
    23     8     9   ar
    24     9    10   ar
    25    10    11    2
    26    10    12   ar
    27    12    32    1
    28    32    33    1
    29    33    34    1
    30    12    13   ar
    31    13     2   ar
    32    25    21    1
    33    13     7   ar
    34    29    26    1
    35    19    14   ar
    36    34    32    1
    37    27    30    1
    38    27    31    1
    39    17    20    1
@<TRIPOS>MOLECULE
*****
 34 39 0 0 0
SMALL
GASTEIGER

@<TRIPOS>ATOM
      1 C         142.4263  141.7549  161.8864 C.3     1  UNL1        0.0339
      2 C         142.0096  141.0082  163.1188 C.ar    1  UNL1        0.0095
      3 C         141.0845  139.8328  163.0066 C.ar    1  UNL1        0.0730
      4 C         140.6678  139.0861  164.2390 C.ar    1  UNL1        0.1531
      5 F         139.7427  137.9106  164.1268 F       1  UNL1       -0.2029
      6 C         141.1761  139.5148  165.5835 C.ar    1  UNL1        0.0324
      7 C         142.1011  140.6902  165.6957 C.ar    1  UNL1        0.0211
      8 C         142.6095  141.1190  167.0402 C.ar    1  UNL1        0.0435
      9 C         143.5345  142.2944  167.1524 C.ar    1  UNL1        0.0639
     10 C         143.9513  143.0411  165.9200 C.ar    1  UNL1        0.2610
     11 O         144.8764  144.2166  166.0322 O.2     1  UNL1       -0.2670
     12 N         143.4430  142.6124  164.5755 N.ar    1  UNL1       -0.2976
     13 C         142.5179  141.4369  164.4633 C.ar    1  UNL1        0.0598
     14 C         142.1927  140.3723  168.2726 C.ar    1  UNL1        0.1804
     15 C         140.9381  140.6035  169.0616 C.ar    1  UNL1        0.1007
     16 C         140.9274  139.6374  170.2090 C.ar    1  UNL1        0.2610
     17 O         139.8567  139.5202  171.2529 O.3     1  UNL1       -0.4900
     18 N         142.1754  138.8091  170.1292 N.ar    1  UNL1       -0.0390
     19 O         142.9574  139.2633  168.9324 O.2     1  UNL1       -0.3504
     20 H         139.1086  140.0836  171.2220 H       1  UNL1        0.2938
     21 N         140.5762  139.4040  161.6621 N.pl3   1  UNL1       -0.3059
     22 C         139.1552  139.4880  161.1889 C.3     1  UNL1        0.0909
     23 C         139.1003  138.9519  159.7890 C.3     1  UNL1        0.0244
     24 C         140.4874  138.5365  159.3971 C.3     1  UNL1        0.0344
     25 C         141.3995  138.8160  160.5547 C.3     1  UNL1        0.0921
     26 C         140.8914  137.9455  158.0789 C.3     1  UNL1        0.0406
     27 N         139.5396  137.6400  157.5052 N.3     1  UNL1       -0.3231
     28 C         141.7649  137.4606  156.9601 C.3     1  UNL1        0.0156
     29 C         142.3835  138.0458  158.1949 C.3     1  UNL1        0.0156
     30 H         138.8174  137.9209  158.1684 H       1  UNL1        0.1188
     31 H         139.4650  136.6387  157.3252 H       1  UNL1        0.1188
     32 C         143.8597  143.3591  163.3431 C.3     1  UNL1        0.0885
     33 C         143.7920  144.5856  162.4822 C.3     1  UNL1        0.0246
     34 C         144.6492  143.4259  162.0695 C.3     1  UNL1        0.0246
@<TRIPOS>BOND
     1     1     2    1
     2     2     3   ar
     3     3    21    1
     4    21    22    1
     5    22    23    1
     6    23    24    1
     7    24    26    1
     8    26    27    1
     9    26    28    1
    10    28    29    1
    11    24    25    1
    12     3     4   ar
    13     4     5    1
    14     4     6   ar
    15     6     7   ar
    16     7     8   ar
    17     8    14    1
    18    14    15   ar
    19    15    16   ar
    20    16    17    1
    21    16    18   ar
    22    18    19   ar
    23     8     9   ar
    24     9    10   ar
    25    10    11    2
    26    10    12   ar
    27    12    32    1
    28    32    33    1
    29    33    34    1
    30    12    13   ar
    31    13     2   ar
    32    25    21    1
    33    13     7   ar
    34    29    26    1
    35    19    14   ar
    36    34    32    1
    37    27    30    1
    38    27    31    1
    39    17    20    1
@<TRIPOS>MOLECULE
*****
 34 39 0 0 0
SMALL
GASTEIGER

@<TRIPOS>ATOM
      1 C         140.7834  142.5239  162.0060 C.3     1  UNL1        0.0339
      2 C         141.2160  141.7052  163.1861 C.ar    1  UNL1        0.0095
      3 C         142.0308  140.4629  162.9788 C.ar    1  UNL1        0.0730
      4 C         142.4634  139.6442  164.1588 C.ar    1  UNL1        0.1531
      5 F         143.2782  138.4019  163.9515 F       1  UNL1       -0.2029
      6 C         142.0813  140.0676  165.5461 C.ar    1  UNL1        0.0324
      7 C         141.2665  141.3099  165.7534 C.ar    1  UNL1        0.0211
      8 C         140.8843  141.7334  167.1407 C.ar    1  UNL1        0.0435
      9 C         140.0696  142.9756  167.3480 C.ar    1  UNL1        0.0639
     10 C         139.6370  143.7944  166.1679 C.ar    1  UNL1        0.2610
     11 O         138.8222  145.0367  166.3752 O.2     1  UNL1       -0.2670
     12 N         140.0191  143.3709  164.7807 N.ar    1  UNL1       -0.2976
     13 C         140.8339  142.1286  164.5733 C.ar    1  UNL1        0.0598
     14 C         141.3169  140.9146  168.3207 C.ar    1  UNL1        0.1804
     15 C         142.6326  141.0214  169.0333 C.ar    1  UNL1        0.1007
     16 C         142.6386  140.0181  170.1484 C.ar    1  UNL1        0.2610
     17 O         143.7597  139.7830  171.1168 O.3     1  UNL1       -0.4900
     18 N         141.3267  139.2912  170.1250 N.ar    1  UNL1       -0.0390
     19 O         140.5099  139.8453  168.9954 O.2     1  UNL1       -0.3504
     20 H         144.5465  140.2880  171.0542 H       1  UNL1        0.2938
     21 N         142.4130  140.0394  161.5915 N.pl3   1  UNL1       -0.3059
     22 C         143.7220  140.3176  160.9138 C.3     1  UNL1        0.0909
     23 C         143.6713  139.7135  159.5418 C.3     1  UNL1        0.0244
     24 C         142.3310  139.0619  159.3715 C.3     1  UNL1        0.0344
     25 C         141.5533  139.2634  160.6382 C.3     1  UNL1        0.0921
     26 C         141.8523  138.3363  158.1490 C.3     1  UNL1        0.0406
     27 N         143.1686  138.0084  157.5088 N.3     1  UNL1       -0.3231
     28 C         140.9166  137.7247  157.1489 C.3     1  UNL1        0.0156
     29 C         140.3699  138.4123  158.3648 C.3     1  UNL1        0.0156
     30 H         143.9273  138.3693  158.0871 H       1  UNL1        0.1188
     31 H         143.2128  138.4363  156.5840 H       1  UNL1        0.1188
     32 C         139.5865  144.1897  163.6006 C.3     1  UNL1        0.0885
     33 C         138.5692  144.5134  162.5470 C.3     1  UNL1        0.0246
     34 C         139.8545  145.2841  162.6105 C.3     1  UNL1        0.0246
@<TRIPOS>BOND
     1     1     2    1
     2     2     3   ar
     3     3    21    1
     4    21    22    1
     5    22    23    1
     6    23    24    1
     7    24    26    1
     8    26    27    1
     9    26    28    1
    10    28    29    1
    11    24    25    1
    12     3     4   ar
    13     4     5    1
    14     4     6   ar
    15     6     7   ar
    16     7     8   ar
    17     8    14    1
    18    14    15   ar
    19    15    16   ar
    20    16    17    1
    21    16    18   ar
    22    18    19   ar
    23     8     9   ar
    24     9    10   ar
    25    10    11    2
    26    10    12   ar
    27    12    32    1
    28    32    33    1
    29    33    34    1
    30    12    13   ar
    31    13     2   ar
    32    25    21    1
    33    13     7   ar
    34    29    26    1
    35    19    14   ar
    36    34    32    1
    37    27    30    1
    38    27    31    1
    39    17    20    1
@<TRIPOS>MOLECULE
*****
 34 39 0 0 0
SMALL
GASTEIGER

@<TRIPOS>ATOM
      1 C         139.6121  142.6236  164.3991 C.3     1  UNL1        0.0339
      2 C         140.1328  141.4613  163.6067 C.ar    1  UNL1        0.0095
      3 C         140.5178  140.1903  164.3041 C.ar    1  UNL1        0.0730
      4 C         141.0385  139.0280  163.5116 C.ar    1  UNL1        0.1531
      5 F         141.4235  137.7570  164.2091 F       1  UNL1       -0.2029
      6 C         141.1741  139.1367  162.0217 C.ar    1  UNL1        0.0324
      7 C         140.7891  140.4076  161.3243 C.ar    1  UNL1        0.0211
      8 C         140.9247  140.5163  159.8344 C.ar    1  UNL1        0.0435
      9 C         140.5397  141.7873  159.1370 C.ar    1  UNL1        0.0639
     10 C         140.0190  142.9495  159.9294 C.ar    1  UNL1        0.2610
     11 O         139.6340  144.2205  159.2319 O.2     1  UNL1       -0.2670
     12 N         139.8834  142.8409  161.4193 N.ar    1  UNL1       -0.2976
     13 C         140.2684  141.5699  162.1168 C.ar    1  UNL1        0.0598
     14 C         141.4454  139.3540  159.0419 C.ar    1  UNL1        0.1804
     15 C         140.6423  138.4848  158.1202 C.ar    1  UNL1        0.1007
     16 C         141.5611  137.4505  157.5407 C.ar    1  UNL1        0.2610
     17 O         141.1765  136.3750  156.5683 O.3     1  UNL1       -0.4900
     18 N         142.9321  137.6804  158.1042 N.ar    1  UNL1       -0.0390
     19 O         142.8606  138.8568  159.0320 O.2     1  UNL1       -0.3504
     20 H         140.2908  136.3081  156.2700 H       1  UNL1        0.2938
     21 N         140.3822  140.0816  165.7940 N.pl3   1  UNL1       -0.3059
     22 C         139.1134  139.8091  166.5463 C.3     1  UNL1        0.0909
     23 C         139.4385  139.7854  168.0104 C.3     1  UNL1        0.0244
     24 C         140.9084  140.0433  168.1630 C.3     1  UNL1        0.0344
     25 C         141.4915  140.2263  166.7932 C.3     1  UNL1        0.0921
     26 C         141.6625  140.1069  169.4581 C.3     1  UNL1        0.0406
     27 N         140.7011  139.3852  170.3551 N.3     1  UNL1       -0.3231
     28 C         142.7506  140.4212  170.4416 C.3     1  UNL1        0.0156
     29 C         142.8859  140.8507  169.0108 C.3     1  UNL1        0.0156
     30 H         139.8835  139.0986  169.8167 H       1  UNL1        0.1188
     31 H         140.4102  140.0054  171.1109 H       1  UNL1        0.1188
     32 C         139.3627  144.0032  162.2118 C.3     1  UNL1        0.0885
     33 C         138.2453  144.6710  162.9569 C.3     1  UNL1        0.0246
     34 C         139.5784  145.3485  162.8392 C.3     1  UNL1        0.0246
@<TRIPOS>BOND
     1     1     2    1
     2     2     3   ar
     3     3    21    1
     4    21    22    1
     5    22    23    1
     6    23    24    1
     7    24    26    1
     8    26    27    1
     9    26    28    1
    10    28    29    1
    11    24    25    1
    12     3     4   ar
    13     4     5    1
    14     4     6   ar
    15     6     7   ar
    16     7     8   ar
    17     8    14    1
    18    14    15   ar
    19    15    16   ar
    20    16    17    1
    21    16    18   ar
    22    18    19   ar
    23     8     9   ar
    24     9    10   ar
    25    10    11    2
    26    10    12   ar
    27    12    32    1
    28    32    33    1
    29    33    34    1
    30    12    13   ar
    31    13     2   ar
    32    25    21    1
    33    13     7   ar
    34    29    26    1
    35    19    14   ar
    36    34    32    1
    37    27    30    1
    38    27    31    1
    39    17    20    1
