@<TRIPOS>MOLECULE
*****
 31 33 0 0 0
SMALL
GASTEIGER

@<TRIPOS>ATOM
      1 C         140.5350  139.9368  165.1963 C.ar    1  UNL1        0.0275
      2 C         139.4078  140.5312  164.4051 C.ar    1  UNL1       -0.0009
      3 C         138.7174  139.7144  163.3532 C.ar    1  UNL1        0.0210
      4 C         139.1543  138.3033  163.0926 C.ar    1  UNL1        0.1397
      5 F         138.4639  137.4866  162.0409 F       1  UNL1       -0.2044
      6 C         140.2816  137.7090  163.8839 C.ar    1  UNL1        0.0587
      7 C         140.9719  138.5257  164.9357 C.ar    1  UNL1        0.1402
      8 F         142.0992  137.9314  165.7269 F       1  UNL1       -0.2044
      9 N         138.2583  139.1707  168.3553 N.pl3   1  UNL1       -0.3380
     10 C         139.4775  139.9705  168.0035 C.2     1  UNL1        0.1482
     11 N         140.0062  139.9537  166.6000 N.2     1  UNL1       -0.2484
     12 C         141.2254  140.7536  166.2481 C.3     1  UNL1        0.1351
     13 C         141.7542  140.7367  164.8445 C.3     1  UNL1        0.1687
     14 O         142.9734  141.5366  164.4927 O.3     1  UNL1       -0.3510
     15 C         143.6638  142.3534  165.5445 C.3     1  UNL1        0.1507
     16 C         143.1350  142.3702  166.9481 C.3     1  UNL1        0.0357
     17 C         141.9158  141.5703  167.2999 C.3     1  UNL1        0.0408
     18 C         141.3870  141.5872  168.7035 C.3     1  UNL1        0.0672
     19 S         140.1679  140.7873  169.0553 S.3     1  UNL1       -0.0807
     20 H         137.8051  138.6346  167.6650 H       1  UNL1        0.1442
     21 H         137.9112  139.1817  169.2766 H       1  UNL1        0.1442
     22 C         144.8830  143.1533  165.1927 C.3     1  UNL1        0.2225
     23 F         145.2778  144.3289  166.0364 F       1  UNL1       -0.2316
     24 C         137.5901  140.3088  162.5621 C.3     1  UNL1        0.0981
     25 N         136.9325  141.5740  163.0276 N.3     1  UNL1       -0.2866
     26 H         136.8678  141.5155  164.0438 H       1  UNL1        0.1238
     27 C         137.5519  142.9024  162.7088 C.3     1  UNL1        0.1734
     28 C         137.8225  143.8868  163.8078 C.3     1  UNL1        0.4118
     29 F         138.0930  144.8712  164.9068 F       1  UNL1       -0.1685
     30 F         137.2509  142.9267  164.8086 F       1  UNL1       -0.1685
     31 F         138.3940  144.8469  162.8070 F       1  UNL1       -0.1685
@<TRIPOS>BOND
     1     9    10    1
     2    10    11    2
     3    11    12    1
     4    12     1    1
     5     1     2   ar
     6     2     3   ar
     7     3    24    1
     8    24    25    1
     9    25    27    1
    10    27    28    1
    11    28    29    1
    12    28    30    1
    13    28    31    1
    14     3     4   ar
    15     4     5    1
    16     4     6   ar
    17     6     7   ar
    18     7     8    1
    19    12    13    1
    20    13    14    1
    21    14    15    1
    22    15    22    1
    23    22    23    1
    24    15    16    1
    25    17    16    1
    26    17    18    1
    27    18    19    1
    28    19    10    1
    29    17    12    1
    30     7     1   ar
    31     9    20    1
    32     9    21    1
    33    25    26    1
@<TRIPOS>MOLECULE
*****
 31 33 0 0 0
SMALL
GASTEIGER

@<TRIPOS>ATOM
      1 C         141.9123  141.0318  164.3419 C.ar    1  UNL1        0.0275
      2 C         141.5182  142.2204  163.5161 C.ar    1  UNL1       -0.0009
      3 C         142.2381  143.5251  163.6879 C.ar    1  UNL1        0.0210
      4 C         143.3522  143.6412  164.6857 C.ar    1  UNL1        0.1397
      5 F         144.0721  144.9458  164.8576 F       1  UNL1       -0.2044
      6 C         143.7462  142.4526  165.5115 C.ar    1  UNL1        0.0587
      7 C         143.0263  141.1479  165.3396 C.ar    1  UNL1        0.1402
      8 F         143.4204  139.9593  166.1655 F       1  UNL1       -0.2044
      9 N         143.8707  139.4960  161.2506 N.pl3   1  UNL1       -0.3380
     10 C         142.7379  139.1382  162.1665 C.2     1  UNL1        0.1482
     11 N         142.3251  140.0850  163.2542 N.2     1  UNL1       -0.2484
     12 C         141.1923  139.7271  164.1700 C.3     1  UNL1        0.1351
     13 C         140.7795  140.6740  165.2578 C.3     1  UNL1        0.1687
     14 O         139.6468  140.3161  166.1736 O.3     1  UNL1       -0.3510
     15 C         138.9268  139.0114  166.0017 C.3     1  UNL1        0.1507
     16 C         139.3396  138.0646  164.9141 C.3     1  UNL1        0.0357
     17 C         140.4724  138.4225  163.9982 C.3     1  UNL1        0.0408
     18 C         140.8852  137.4757  162.9105 C.3     1  UNL1        0.0672
     19 S         142.0180  137.8335  161.9947 S.3     1  UNL1       -0.0807
     20 H         144.3432  140.3523  161.3634 H       1  UNL1        0.1442
     21 H         144.1417  138.8746  160.5367 H       1  UNL1        0.1442
     22 C         137.7940  138.6536  166.9176 C.3     1  UNL1        0.2225
     23 F         137.3629  137.2234  167.0539 F       1  UNL1       -0.2316
     24 C         141.8440  144.7136  162.8621 C.3     1  UNL1        0.0981
     25 N         140.6724  145.5560  163.2714 N.3     1  UNL1       -0.2866
     26 H         140.8250  146.4842  162.8769 H       1  UNL1        0.1238
     27 C         139.2822  145.1451  162.8862 C.3     1  UNL1        0.1734
     28 C         138.3648  144.5490  163.9124 C.3     1  UNL1        0.4118
     29 F         137.4475  143.9528  164.9386 F       1  UNL1       -0.1685
     30 F         137.4916  144.0097  162.8185 F       1  UNL1       -0.1685
     31 F         139.2381  145.0883  165.0063 F       1  UNL1       -0.1685
@<TRIPOS>BOND
     1     9    10    1
     2    10    11    2
     3    11    12    1
     4    12     1    1
     5     1     2   ar
     6     2     3   ar
     7     3    24    1
     8    24    25    1
     9    25    27    1
    10    27    28    1
    11    28    29    1
    12    28    30    1
    13    28    31    1
    14     3     4   ar
    15     4     5    1
    16     4     6   ar
    17     6     7   ar
    18     7     8    1
    19    12    13    1
    20    13    14    1
    21    14    15    1
    22    15    22    1
    23    22    23    1
    24    15    16    1
    25    17    16    1
    26    17    18    1
    27    18    19    1
    28    19    10    1
    29    17    12    1
    30     7     1   ar
    31     9    20    1
    32     9    21    1
    33    25    26    1
@<TRIPOS>MOLECULE
*****
 31 33 0 0 0
SMALL
GASTEIGER

@<TRIPOS>ATOM
      1 C         139.9095  139.3507  164.4775 C.ar    1  UNL1        0.0275
      2 C         139.4560  140.5836  163.7535 C.ar    1  UNL1       -0.0009
      3 C         138.5183  140.4669  162.5884 C.ar    1  UNL1        0.0210
      4 C         138.0343  139.1174  162.1474 C.ar    1  UNL1        0.1397
      5 F         137.0968  139.0007  160.9824 F       1  UNL1       -0.2044
      6 C         138.4879  137.8845  162.8715 C.ar    1  UNL1        0.0587
      7 C         139.4255  138.0011  164.0365 C.ar    1  UNL1        0.1402
      8 F         139.8791  136.7682  164.7606 F       1  UNL1       -0.2044
      9 N         143.3855  138.5836  162.7227 N.pl3   1  UNL1       -0.3380
     10 C         142.8519  138.9170  164.0844 C.2     1  UNL1        0.1482
     11 N         141.3807  139.1339  164.2809 N.2     1  UNL1       -0.2484
     12 C         140.8471  139.4673  165.6426 C.3     1  UNL1        0.1351
     13 C         139.3759  139.6841  165.8391 C.3     1  UNL1        0.1687
     14 O         138.8423  140.0176  167.2008 O.3     1  UNL1       -0.3510
     15 C         139.7799  140.1342  168.3659 C.3     1  UNL1        0.1507
     16 C         141.2510  139.9174  168.1693 C.3     1  UNL1        0.0357
     17 C         141.7846  139.5839  166.8076 C.3     1  UNL1        0.0408
     18 C         143.2558  139.3671  166.6111 C.3     1  UNL1        0.0672
     19 S         143.7894  139.0337  165.2494 S.3     1  UNL1       -0.0807
     20 H         142.7701  138.5071  161.9580 H       1  UNL1        0.1442
     21 H         144.3511  138.4413  162.5937 H       1  UNL1        0.1442
     22 C         139.2463  140.4676  169.7275 C.3     1  UNL1        0.2225
     23 F         137.8798  140.0003  170.1326 F       1  UNL1       -0.2316
     24 C         138.0648  141.6998  161.8643 C.3     1  UNL1        0.0981
     25 N         137.2828  142.7524  162.5927 N.3     1  UNL1       -0.2866
     26 H         136.9643  142.3314  163.4655 H       1  UNL1        0.1238
     27 C         137.9330  144.0553  162.9525 C.3     1  UNL1        0.1734
     28 C         138.3752  144.3086  164.3633 C.3     1  UNL1        0.4118
     29 F         138.8173  144.5618  165.7741 F       1  UNL1       -0.1685
     30 F         137.4325  143.2478  164.8491 F       1  UNL1       -0.1685
     31 F         139.3179  145.3693  163.8775 F       1  UNL1       -0.1685
@<TRIPOS>BOND
     1     9    10    1
     2    10    11    2
     3    11    12    1
     4    12     1    1
     5     1     2   ar
     6     2     3   ar
     7     3    24    1
     8    24    25    1
     9    25    27    1
    10    27    28    1
    11    28    29    1
    12    28    30    1
    13    28    31    1
    14     3     4   ar
    15     4     5    1
    16     4     6   ar
    17     6     7   ar
    18     7     8    1
    19    12    13    1
    20    13    14    1
    21    14    15    1
    22    15    22    1
    23    22    23    1
    24    15    16    1
    25    17    16    1
    26    17    18    1
    27    18    19    1
    28    19    10    1
    29    17    12    1
    30     7     1   ar
    31     9    20    1
    32     9    21    1
    33    25    26    1
@<TRIPOS>MOLECULE
*****
 31 33 0 0 0
SMALL
GASTEIGER

@<TRIPOS>ATOM
      1 C         140.2426  141.1399  165.5000 C.ar    1  UNL1        0.0275
      2 C         140.2118  141.1312  166.9996 C.ar    1  UNL1       -0.0009
      3 C         139.2909  140.1958  167.7255 C.ar    1  UNL1        0.0210
      4 C         138.4008  139.2690  166.9516 C.ar    1  UNL1        0.1397
      5 F         137.4798  138.3336  167.6774 F       1  UNL1       -0.2044
      6 C         138.4316  139.2778  165.4519 C.ar    1  UNL1        0.0587
      7 C         139.3525  140.2132  164.7261 C.ar    1  UNL1        0.1402
      8 F         139.3833  140.2219  163.2264 F       1  UNL1       -0.2044
      9 N         137.8236  144.2176  164.8470 N.pl3   1  UNL1       -0.3380
     10 C         139.2439  143.8153  164.5808 C.2     1  UNL1        0.1482
     11 N         139.7433  142.4777  165.0403 N.2     1  UNL1       -0.2484
     12 C         141.1636  142.0754  164.7741 C.3     1  UNL1        0.1351
     13 C         141.6629  140.7377  165.2337 C.3     1  UNL1        0.1687
     14 O         143.0832  140.3354  164.9675 O.3     1  UNL1       -0.3510
     15 C         144.0042  141.2709  164.2416 C.3     1  UNL1        0.1507
     16 C         143.5048  142.6085  163.7820 C.3     1  UNL1        0.0357
     17 C         142.0845  143.0108  164.0483 C.3     1  UNL1        0.0408
     18 C         141.5851  144.3485  163.5887 C.3     1  UNL1        0.0672
     19 S         140.1648  144.7507  163.8549 S.3     1  UNL1       -0.0807
     20 H         137.2191  143.6036  165.3234 H       1  UNL1        0.1442
     21 H         137.4958  145.0956  164.5454 H       1  UNL1        0.1442
     22 C         145.4245  140.8686  163.9753 C.3     1  UNL1        0.2225
     23 F         146.3574  141.8209  163.2878 F       1  UNL1       -0.2316
     24 C         139.2601  140.1871  169.2251 C.3     1  UNL1        0.0981
     25 N         140.5250  140.4010  170.0025 N.3     1  UNL1       -0.2866
     26 H         141.2916  140.3756  169.3302 H       1  UNL1        0.1238
     27 C         140.7035  141.6485  170.8160 C.3     1  UNL1        0.1734
     28 C         140.4746  142.9918  170.1890 C.3     1  UNL1        0.4118
     29 F         140.2458  144.3352  169.5620 F       1  UNL1       -0.1685
     30 F         141.7677  142.8625  169.4399 F       1  UNL1       -0.1685
     31 F         139.1815  143.1212  170.9381 F       1  UNL1       -0.1685
@<TRIPOS>BOND
     1     9    10    1
     2    10    11    2
     3    11    12    1
     4    12     1    1
     5     1     2   ar
     6     2     3   ar
     7     3    24    1
     8    24    25    1
     9    25    27    1
    10    27    28    1
    11    28    29    1
    12    28    30    1
    13    28    31    1
    14     3     4   ar
    15     4     5    1
    16     4     6   ar
    17     6     7   ar
    18     7     8    1
    19    12    13    1
    20    13    14    1
    21    14    15    1
    22    15    22    1
    23    22    23    1
    24    15    16    1
    25    17    16    1
    26    17    18    1
    27    18    19    1
    28    19    10    1
    29    17    12    1
    30     7     1   ar
    31     9    20    1
    32     9    21    1
    33    25    26    1
@<TRIPOS>MOLECULE
*****
 31 33 0 0 0
SMALL
GASTEIGER

@<TRIPOS>ATOM
      1 C         142.2645  141.5604  166.2664 C.ar    1  UNL1        0.0275
      2 C         141.9791  142.9180  165.6961 C.ar    1  UNL1       -0.0009
      3 C         142.8040  143.4420  164.5581 C.ar    1  UNL1        0.0210
      4 C         143.9143  142.6083  163.9904 C.ar    1  UNL1        0.1397
      5 F         144.7392  143.1322  162.8524 F       1  UNL1       -0.2044
      6 C         144.1996  141.2505  164.5608 C.ar    1  UNL1        0.0587
      7 C         143.3747  140.7266  165.6988 C.ar    1  UNL1        0.1402
      8 F         143.6601  139.3689  166.2691 F       1  UNL1       -0.2044
      9 N         144.3579  142.8674  169.3744 N.pl3   1  UNL1       -0.3380
     10 C         143.1101  142.0824  169.0970 C.2     1  UNL1        0.1482
     11 N         142.6873  141.8214  167.6818 N.2     1  UNL1       -0.2484
     12 C         141.4395  141.0364  167.4044 C.3     1  UNL1        0.1351
     13 C         141.0167  140.7754  165.9891 C.3     1  UNL1        0.1687
     14 O         139.7690  139.9904  165.7117 O.3     1  UNL1       -0.3510
     15 C         138.9441  139.4664  166.8498 C.3     1  UNL1        0.1507
     16 C         139.3669  139.7274  168.2650 C.3     1  UNL1        0.0357
     17 C         140.6146  140.5124  168.5424 C.3     1  UNL1        0.0408
     18 C         141.0375  140.7734  169.9576 C.3     1  UNL1        0.0672
     19 S         142.2852  141.5584  170.2350 S.3     1  UNL1       -0.0807
     20 H         144.8993  143.2113  168.6275 H       1  UNL1        0.1442
     21 H         144.6354  143.0387  170.3033 H       1  UNL1        0.1442
     22 C         137.6963  138.6814  166.5724 C.3     1  UNL1        0.2225
     23 F         136.9150  138.0890  167.7076 F       1  UNL1       -0.2316
     24 C         142.5187  144.7996  163.9877 C.3     1  UNL1        0.0981
     25 N         141.1215  145.3448  164.0120 N.3     1  UNL1       -0.2866
     26 H         141.1520  146.2539  163.5504 H       1  UNL1        0.1238
     27 C         140.0041  144.5731  163.3749 C.3     1  UNL1        0.1734
     28 C         138.7080  144.3877  164.1067 C.3     1  UNL1        0.4118
     29 F         137.4119  144.2022  164.8386 F       1  UNL1       -0.1685
     30 F         138.1863  143.5564  162.9723 F       1  UNL1       -0.1685
     31 F         139.2297  145.2189  165.2412 F       1  UNL1       -0.1685
@<TRIPOS>BOND
     1     9    10    1
     2    10    11    2
     3    11    12    1
     4    12     1    1
     5     1     2   ar
     6     2     3   ar
     7     3    24    1
     8    24    25    1
     9    25    27    1
    10    27    28    1
    11    28    29    1
    12    28    30    1
    13    28    31    1
    14     3     4   ar
    15     4     5    1
    16     4     6   ar
    17     6     7   ar
    18     7     8    1
    19    12    13    1
    20    13    14    1
    21    14    15    1
    22    15    22    1
    23    22    23    1
    24    15    16    1
    25    17    16    1
    26    17    18    1
    27    18    19    1
    28    19    10    1
    29    17    12    1
    30     7     1   ar
    31     9    20    1
    32     9    21    1
    33    25    26    1
@<TRIPOS>MOLECULE
*****
 31 33 0 0 0
SMALL
GASTEIGER

@<TRIPOS>ATOM
      1 C         139.5753  142.6435  164.2059 C.ar    1  UNL1        0.0275
      2 C         140.7994  142.9246  163.3858 C.ar    1  UNL1       -0.0009
      3 C         140.8017  144.0613  162.4070 C.ar    1  UNL1        0.0210
      4 C         139.5799  144.9169  162.2484 C.ar    1  UNL1        0.1397
      5 F         139.5821  146.0536  161.2697 F       1  UNL1       -0.2044
      6 C         138.3557  144.6357  163.0686 C.ar    1  UNL1        0.0587
      7 C         138.3535  143.4990  164.0473 C.ar    1  UNL1        0.1402
      8 F         137.1294  143.2179  164.8674 F       1  UNL1       -0.2044
      9 N         138.4492  139.6418  161.8667 N.pl3   1  UNL1       -0.3380
     10 C         138.8231  139.8846  163.2990 C.2     1  UNL1        0.1482
     11 N         139.1992  141.2640  163.7524 N.2     1  UNL1       -0.2484
     12 C         139.5731  141.5068  165.1847 C.3     1  UNL1        0.1351
     13 C         139.9492  142.8863  165.6381 C.3     1  UNL1        0.1687
     14 O         140.3230  143.1291  167.0704 O.3     1  UNL1       -0.3510
     15 C         140.3208  141.9923  168.0491 C.3     1  UNL1        0.1507
     16 C         139.9446  140.6129  167.5957 C.3     1  UNL1        0.0357
     17 C         139.5708  140.3701  166.1634 C.3     1  UNL1        0.0408
     18 C         139.1947  138.9907  165.7100 C.3     1  UNL1        0.0672
     19 S         138.8208  138.7479  164.2777 S.3     1  UNL1       -0.0807
     20 H         138.4507  140.3878  161.2243 H       1  UNL1        0.1442
     21 H         138.2024  138.7364  161.5691 H       1  UNL1        0.1442
     22 C         140.6946  142.2351  169.4814 C.3     1  UNL1        0.2225
     23 F         140.0002  143.3083  170.2662 F       1  UNL1       -0.2316
     24 C         142.0258  144.3425  161.5870 C.3     1  UNL1        0.0981
     25 N         143.2590  144.8889  162.2432 N.3     1  UNL1       -0.2866
     26 H         142.9451  145.5033  162.9944 H       1  UNL1        0.1238
     27 C         144.2673  143.9534  162.8416 C.3     1  UNL1        0.1734
     28 C         144.3917  143.8383  164.3320 C.3     1  UNL1        0.4118
     29 F         144.5161  143.7231  165.8224 F       1  UNL1       -0.1685
     30 F         143.5642  145.0785  164.4969 F       1  UNL1       -0.1685
     31 F         145.2192  142.5981  164.1671 F       1  UNL1       -0.1685
@<TRIPOS>BOND
     1     9    10    1
     2    10    11    2
     3    11    12    1
     4    12     1    1
     5     1     2   ar
     6     2     3   ar
     7     3    24    1
     8    24    25    1
     9    25    27    1
    10    27    28    1
    11    28    29    1
    12    28    30    1
    13    28    31    1
    14     3     4   ar
    15     4     5    1
    16     4     6   ar
    17     6     7   ar
    18     7     8    1
    19    12    13    1
    20    13    14    1
    21    14    15    1
    22    15    22    1
    23    22    23    1
    24    15    16    1
    25    17    16    1
    26    17    18    1
    27    18    19    1
    28    19    10    1
    29    17    12    1
    30     7     1   ar
    31     9    20    1
    32     9    21    1
    33    25    26    1
@<TRIPOS>MOLECULE
*****
 31 33 0 0 0
SMALL
GASTEIGER

@<TRIPOS>ATOM
      1 C         140.9597  140.0789  165.2146 C.ar    1  UNL1        0.0275
      2 C         139.8044  140.5924  164.4075 C.ar    1  UNL1       -0.0009
      3 C         138.9572  139.6380  163.6191 C.ar    1  UNL1        0.0210
      4 C         139.2653  138.1701  163.6380 C.ar    1  UNL1        0.1397
      5 F         138.4182  137.2157  162.8498 F       1  UNL1       -0.2044
      6 C         140.4208  137.6566  164.4452 C.ar    1  UNL1        0.0587
      7 C         141.2679  138.6111  165.2335 C.ar    1  UNL1        0.1402
      8 F         142.4233  138.0976  166.0406 F       1  UNL1       -0.2044
      9 N         143.4418  141.3768  162.4030 N.pl3   1  UNL1       -0.3380
     10 C         143.1793  141.5804  163.8657 C.2     1  UNL1        0.1482
     11 N         142.0695  140.8297  164.5402 N.2     1  UNL1       -0.2484
     12 C         141.8070  141.0334  166.0029 C.3     1  UNL1        0.1351
     13 C         140.6972  140.2826  166.6773 C.3     1  UNL1        0.1687
     14 O         140.4346  140.4862  168.1400 O.3     1  UNL1       -0.3510
     15 C         141.2819  141.4407  168.9284 C.3     1  UNL1        0.1507
     16 C         142.3916  142.1914  168.2539 C.3     1  UNL1        0.0357
     17 C         142.6541  141.9877  166.7912 C.3     1  UNL1        0.0408
     18 C         143.7639  142.7384  166.1168 C.3     1  UNL1        0.0672
     19 S         144.0264  142.5348  164.6540 S.3     1  UNL1       -0.0807
     20 H         142.8858  140.7504  161.8856 H       1  UNL1        0.1442
     21 H         144.1702  141.8695  161.9603 H       1  UNL1        0.1442
     22 C         141.0193  141.6443  170.3911 C.3     1  UNL1        0.2225
     23 F         141.8947  140.9773  171.4102 F       1  UNL1       -0.2316
     24 C         137.8018  140.1515  162.8120 C.3     1  UNL1        0.0981
     25 N         137.0537  141.3703  163.2645 N.3     1  UNL1       -0.2866
     26 H         137.0900  141.3765  164.2838 H       1  UNL1        0.1238
     27 C         137.4898  142.7307  162.8073 C.3     1  UNL1        0.1734
     28 C         137.7861  143.8014  163.8152 C.3     1  UNL1        0.4118
     29 F         138.0825  144.8720  164.8231 F       1  UNL1       -0.1685
     30 F         137.4697  142.8437  164.9255 F       1  UNL1       -0.1685
     31 F         138.1025  144.7590  162.7049 F       1  UNL1       -0.1685
@<TRIPOS>BOND
     1     9    10    1
     2    10    11    2
     3    11    12    1
     4    12     1    1
     5     1     2   ar
     6     2     3   ar
     7     3    24    1
     8    24    25    1
     9    25    27    1
    10    27    28    1
    11    28    29    1
    12    28    30    1
    13    28    31    1
    14     3     4   ar
    15     4     5    1
    16     4     6   ar
    17     6     7   ar
    18     7     8    1
    19    12    13    1
    20    13    14    1
    21    14    15    1
    22    15    22    1
    23    22    23    1
    24    15    16    1
    25    17    16    1
    26    17    18    1
    27    18    19    1
    28    19    10    1
    29    17    12    1
    30     7     1   ar
    31     9    20    1
    32     9    21    1
    33    25    26    1
@<TRIPOS>MOLECULE
*****
 31 33 0 0 0
SMALL
GASTEIGER

@<TRIPOS>ATOM
      1 C         142.2083  139.9873  164.9352 C.ar    1  UNL1        0.0275
      2 C         142.3465  141.3036  164.2295 C.ar    1  UNL1       -0.0009
      3 C         143.6916  141.7572  163.7447 C.ar    1  UNL1        0.0210
      4 C         144.8985  140.8943  163.9656 C.ar    1  UNL1        0.1397
      5 F         146.2436  141.3478  163.4808 F       1  UNL1       -0.2044
      6 C         144.7603  139.5778  164.6713 C.ar    1  UNL1        0.0587
      7 C         143.4152  139.1244  165.1560 C.ar    1  UNL1        0.1402
      8 F         143.2769  137.8079  165.8618 F       1  UNL1       -0.2044
      9 N         140.9283  137.9373  161.7872 N.pl3   1  UNL1       -0.3380
     10 C         140.4582  138.3183  163.1598 C.2     1  UNL1        0.1482
     11 N         141.3332  139.1528  164.0475 N.2     1  UNL1       -0.2484
     12 C         140.8631  139.5337  165.4200 C.3     1  UNL1        0.1351
     13 C         141.7382  140.3682  166.3077 C.3     1  UNL1        0.1687
     14 O         141.2681  140.7492  167.6803 O.3     1  UNL1       -0.3510
     15 C         139.9230  140.2956  168.1651 C.3     1  UNL1        0.1507
     16 C         139.0480  139.4612  167.2774 C.3     1  UNL1        0.0357
     17 C         139.5181  139.0802  165.9049 C.3     1  UNL1        0.0408
     18 C         138.6431  138.2458  165.0172 C.3     1  UNL1        0.0672
     19 S         139.1132  137.8648  163.6446 S.3     1  UNL1       -0.0807
     20 H         141.8111  138.2350  161.4690 H       1  UNL1        0.1442
     21 H         140.3540  137.3897  161.2046 H       1  UNL1        0.1442
     22 C         139.4529  140.6766  169.5377 C.3     1  UNL1        0.2225
     23 F         138.1038  140.2313  170.0189 F       1  UNL1       -0.2316
     24 C         143.8298  143.0736  163.0390 C.3     1  UNL1        0.0981
     25 N         143.8648  144.3481  163.8292 N.3     1  UNL1       -0.2866
     26 H         144.6413  144.8996  163.4641 H       1  UNL1        0.1238
     27 C         142.6663  145.2497  163.8519 C.3     1  UNL1        0.1734
     28 C         141.3315  144.7344  163.4015 C.3     1  UNL1        0.4118
     29 F         139.9967  144.2191  162.9512 F       1  UNL1       -0.1685
     30 F         141.0314  144.2881  164.8018 F       1  UNL1       -0.1685
     31 F         141.6316  145.1807  162.0013 F       1  UNL1       -0.1685
@<TRIPOS>BOND
     1     9    10    1
     2    10    11    2
     3    11    12    1
     4    12     1    1
     5     1     2   ar
     6     2     3   ar
     7     3    24    1
     8    24    25    1
     9    25    27    1
    10    27    28    1
    11    28    29    1
    12    28    30    1
    13    28    31    1
    14     3     4   ar
    15     4     5    1
    16     4     6   ar
    17     6     7   ar
    18     7     8    1
    19    12    13    1
    20    13    14    1
    21    14    15    1
    22    15    22    1
    23    22    23    1
    24    15    16    1
    25    17    16    1
    26    17    18    1
    27    18    19    1
    28    19    10    1
    29    17    12    1
    30     7     1   ar
    31     9    20    1
    32     9    21    1
    33    25    26    1
@<TRIPOS>MOLECULE
*****
 31 33 0 0 0
SMALL
GASTEIGER

@<TRIPOS>ATOM
      1 C         140.6791  142.4870  165.6391 C.ar    1  UNL1        0.0275
      2 C         142.1475  142.4992  165.3334 C.ar    1  UNL1       -0.0009
      3 C         142.7284  143.5930  164.4872 C.ar    1  UNL1        0.0210
      4 C         141.8409  144.6747  163.9467 C.ar    1  UNL1        0.1397
      5 F         142.4217  145.7686  163.1005 F       1  UNL1       -0.2044
      6 C         140.3723  144.6626  164.2524 C.ar    1  UNL1        0.0587
      7 C         139.7915  143.5687  165.0986 C.ar    1  UNL1        0.1402
      8 F         138.3230  143.5565  165.4044 F       1  UNL1       -0.2044
      9 N         138.9540  140.2304  162.8675 N.pl3   1  UNL1       -0.3380
     10 C         139.1417  140.2534  164.3555 C.2     1  UNL1        0.1482
     11 N         139.9104  141.3702  164.9973 N.2     1  UNL1       -0.2484
     12 C         140.0982  141.3932  166.4854 C.3     1  UNL1        0.1351
     13 C         140.8669  142.5100  167.1271 C.3     1  UNL1        0.1687
     14 O         141.0546  142.5330  168.6152 O.3     1  UNL1       -0.3510
     15 C         140.4737  141.4391  169.4614 C.3     1  UNL1        0.1507
     16 C         139.7051  140.3223  168.8196 C.3     1  UNL1        0.0357
     17 C         139.5173  140.2994  167.3316 C.3     1  UNL1        0.0408
     18 C         138.7486  139.1826  166.6898 C.3     1  UNL1        0.0672
     19 S         138.5609  139.1596  165.2018 S.3     1  UNL1       -0.0807
     20 H         139.3352  140.9483  162.3121 H       1  UNL1        0.1442
     21 H         138.4495  139.4974  162.4463 H       1  UNL1        0.1442
     22 C         140.6615  141.4621  170.9494 C.3     1  UNL1        0.2225
     23 F         141.8953  142.0774  171.5403 F       1  UNL1       -0.2316
     24 C         144.1969  143.6052  164.1815 C.3     1  UNL1        0.0981
     25 N         144.6770  143.2923  162.7952 N.3     1  UNL1       -0.2866
     26 H         145.3883  143.9866  162.5663 H       1  UNL1        0.1238
     27 C         145.2704  141.9484  162.4925 C.3     1  UNL1        0.1734
     28 C         145.0761  140.8099  163.4497 C.3     1  UNL1        0.4118
     29 F         144.8818  139.6714  164.4068 F       1  UNL1       -0.1685
     30 F         143.7822  140.4633  162.7746 F       1  UNL1       -0.1685
     31 F         146.3700  141.1565  164.1247 F       1  UNL1       -0.1685
@<TRIPOS>BOND
     1     9    10    1
     2    10    11    2
     3    11    12    1
     4    12     1    1
     5     1     2   ar
     6     2     3   ar
     7     3    24    1
     8    24    25    1
     9    25    27    1
    10    27    28    1
    11    28    29    1
    12    28    30    1
    13    28    31    1
    14     3     4   ar
    15     4     5    1
    16     4     6   ar
    17     6     7   ar
    18     7     8    1
    19    12    13    1
    20    13    14    1
    21    14    15    1
    22    15    22    1
    23    22    23    1
    24    15    16    1
    25    17    16    1
    26    17    18    1
    27    18    19    1
    28    19    10    1
    29    17    12    1
    30     7     1   ar
    31     9    20    1
    32     9    21    1
    33    25    26    1
