@<TRIPOS>MOLECULE
*****
 34 38 0 0 0
SMALL
GASTEIGER

@<TRIPOS>ATOM
      1 N         142.8749  138.5187  165.6816 N.pl3   1  UNL1       -0.3059
      2 H         143.7207  138.0179  165.6256 H       1  UNL1        0.1495
      3 C         142.5945  139.3862  166.8728 C.ar    1  UNL1        0.1978
      4 N         142.9049  139.0497  168.3012 N.ar    1  UNL1       -0.2138
      5 C         142.4566  140.1980  169.1559 C.ar    1  UNL1        0.0999
      6 C         142.5075  140.4261  170.6376 C.ar    1  UNL1        0.0207
      7 C         141.9709  141.7004  171.2190 C.ar    1  UNL1        0.0016
      8 C         141.3834  142.7466  170.3188 C.ar    1  UNL1        0.0016
      9 C         141.3325  142.5185  168.8372 C.ar    1  UNL1        0.0188
     10 C         141.8692  141.2442  168.2557 C.ar    1  UNL1        0.0798
     11 N         141.9544  140.7424  166.8447 N.ar    1  UNL1       -0.2998
     12 C         141.4823  141.4694  165.6205 C.3     1  UNL1        0.1087
     13 C         142.2333  142.6693  165.1244 C.3     1  UNL1        0.0227
     14 C         143.6970  142.8129  165.4196 C.3     1  UNL1        0.0019
     15 C         144.4480  144.0128  164.9235 C.3     1  UNL1        0.0001
     16 C         143.7354  145.0691  164.1321 C.3     1  UNL1        0.0000
     17 C         142.2718  144.9256  163.8369 C.3     1  UNL1        0.0001
     18 C         141.5207  143.7257  164.3330 C.3     1  UNL1        0.0019
     19 N         139.8507  138.2057  162.3640 N.3     1  UNL1       -0.2723
     20 C         139.4778  137.8013  163.7595 C.3     1  UNL1        0.0738
     21 C         140.4859  137.9056  164.8654 C.3     1  UNL1        0.0369
     22 C         141.8669  138.4144  164.5758 C.3     1  UNL1        0.0745
     23 C         142.2398  138.8189  163.1803 C.3     1  UNL1        0.0369
     24 C         141.2318  138.7146  162.0744 C.3     1  UNL1        0.0738
     25 C         138.8427  138.1014  161.2581 C.3     1  UNL1        0.0768
     26 C         137.6530  139.0148  161.2391 C.3     1  UNL1        0.0437
     27 C         138.1457  143.3722  162.2494 C.ar    1  UNL1        0.1387
     28 C         137.5443  142.4330  163.2526 C.ar    1  UNL1        0.0366
     29 C         137.3801  140.9806  162.9158 C.ar    1  UNL1       -0.0011
     30 C         137.8173  140.4673  161.5758 C.ar    1  UNL1       -0.0206
     31 C         138.4186  141.4064  160.5727 C.ar    1  UNL1       -0.0011
     32 C         138.5828  142.8589  160.9095 C.ar    1  UNL1        0.0366
     33 C         139.3671  145.6386  161.9007 C.3     1  UNL1        0.2525
     34 O         138.3099  144.8246  162.5862 O.3     1  UNL1       -0.4714
@<TRIPOS>BOND
     1    33    34    1
     2    34    27    1
     3    27    28   ar
     4    28    29   ar
     5    29    30   ar
     6    30    26    1
     7    26    25    1
     8    25    19    1
     9    19    20    1
    10    20    21    1
    11    21    22    1
    12    22     1    1
    13     1     3    1
    14     3     4   ar
    15     4     5   ar
    16     5     6   ar
    17     6     7   ar
    18     7     8   ar
    19     8     9   ar
    20     9    10   ar
    21    10    11   ar
    22    11    12    1
    23    12    13    1
    24    13    14    1
    25    14    15    1
    26    15    16    1
    27    16    17    1
    28    17    18    1
    29    22    23    1
    30    23    24    1
    31    30    31   ar
    32    31    32   ar
    33    32    27   ar
    34    24    19    1
    35    11     3   ar
    36    18    13    1
    37    10     5   ar
    38     1     2    1
@<TRIPOS>MOLECULE
*****
 34 38 0 0 0
SMALL
GASTEIGER

@<TRIPOS>ATOM
      1 N         145.0799  140.2373  163.2046 N.pl3   1  UNL1       -0.3059
      2 H         146.0526  140.3804  163.2558 H       1  UNL1        0.1495
      3 C         144.4264  139.9950  161.8763 C.ar    1  UNL1        0.1978
      4 N         143.9967  138.6637  161.3350 N.ar    1  UNL1       -0.2138
      5 C         143.3926  138.8873  159.9803 C.ar    1  UNL1        0.0999
      6 C         142.7984  137.9427  158.9780 C.ar    1  UNL1        0.0207
      7 C         142.2607  138.4675  157.6798 C.ar    1  UNL1        0.0016
      8 C         142.3172  139.9370  157.3839 C.ar    1  UNL1        0.0016
      9 C         142.9113  140.8816  158.3862 C.ar    1  UNL1        0.0188
     10 C         143.4490  140.3567  159.6844 C.ar    1  UNL1        0.0798
     11 N         144.0880  141.0413  160.8562 N.ar    1  UNL1       -0.2998
     12 C         144.3435  142.5137  160.9852 C.3     1  UNL1        0.1087
     13 C         143.5458  143.3311  161.9575 C.3     1  UNL1        0.0227
     14 C         144.2158  144.4070  162.7598 C.3     1  UNL1        0.0019
     15 C         143.4181  145.2244  163.7322 C.3     1  UNL1        0.0001
     16 C         141.9504  144.9660  163.9022 C.3     1  UNL1        0.0000
     17 C         141.2804  143.8901  163.1000 C.3     1  UNL1        0.0001
     18 C         142.0781  143.0727  162.1277 C.3     1  UNL1        0.0019
     19 N         142.5944  140.3104  166.9551 N.3     1  UNL1       -0.2723
     20 C         143.0336  141.5970  166.3213 C.3     1  UNL1        0.0738
     21 C         143.8622  141.5726  165.0711 C.3     1  UNL1        0.0369
     22 C         144.2514  140.2617  164.4547 C.3     1  UNL1        0.0745
     23 C         143.8121  138.9751  165.0886 C.3     1  UNL1        0.0369
     24 C         142.9836  138.9994  166.3387 C.3     1  UNL1        0.0738
     25 C         141.7658  140.3347  168.2053 C.3     1  UNL1        0.0768
     26 C         140.2699  140.3946  168.1127 C.3     1  UNL1        0.0437
     27 C         138.2572  140.2483  164.0906 C.ar    1  UNL1        0.1387
     28 C         138.7526  141.5556  164.6342 C.ar    1  UNL1        0.0366
     29 C         139.4235  141.6044  165.9749 C.ar    1  UNL1       -0.0011
     30 C         139.5990  140.3458  166.7720 C.ar    1  UNL1       -0.0206
     31 C         139.1036  139.0385  166.2284 C.ar    1  UNL1       -0.0011
     32 C         138.4327  138.9898  164.8876 C.ar    1  UNL1        0.0366
     33 C         137.7974  139.0195  161.8481 C.3     1  UNL1        0.2525
     34 O         137.5863  140.1995  162.7499 O.3     1  UNL1       -0.4714
@<TRIPOS>BOND
     1    33    34    1
     2    34    27    1
     3    27    28   ar
     4    28    29   ar
     5    29    30   ar
     6    30    26    1
     7    26    25    1
     8    25    19    1
     9    19    20    1
    10    20    21    1
    11    21    22    1
    12    22     1    1
    13     1     3    1
    14     3     4   ar
    15     4     5   ar
    16     5     6   ar
    17     6     7   ar
    18     7     8   ar
    19     8     9   ar
    20     9    10   ar
    21    10    11   ar
    22    11    12    1
    23    12    13    1
    24    13    14    1
    25    14    15    1
    26    15    16    1
    27    16    17    1
    28    17    18    1
    29    22    23    1
    30    23    24    1
    31    30    31   ar
    32    31    32   ar
    33    32    27   ar
    34    24    19    1
    35    11     3   ar
    36    18    13    1
    37    10     5   ar
    38     1     2    1
@<TRIPOS>MOLECULE
*****
 34 38 0 0 0
SMALL
GASTEIGER

@<TRIPOS>ATOM
      1 N         138.9316  139.3067  165.3098 N.pl3   1  UNL1       -0.3059
      2 H         137.9682  139.1318  165.2074 H       1  UNL1        0.1495
      3 C         139.4595  139.8676  166.5969 C.ar    1  UNL1        0.1978
      4 N         139.0262  139.4679  167.9762 N.ar    1  UNL1       -0.2138
      5 C         139.8122  140.2799  168.9626 C.ar    1  UNL1        0.0999
      6 C         139.8098  140.3148  170.4621 C.ar    1  UNL1        0.0207
      7 C         140.7264  141.2514  171.1920 C.ar    1  UNL1        0.0016
      8 C         141.6454  142.1530  170.4222 C.ar    1  UNL1        0.0016
      9 C         141.6478  142.1181  168.9227 C.ar    1  UNL1        0.0188
     10 C         140.7312  141.1816  168.1928 C.ar    1  UNL1        0.0798
     11 N         140.5132  140.9267  166.7308 N.ar    1  UNL1       -0.2998
     12 C         141.2241  141.6110  165.6010 C.3     1  UNL1        0.1087
     13 C         140.5524  142.7283  164.8592 C.3     1  UNL1        0.0227
     14 C         140.8137  142.9199  163.3946 C.3     1  UNL1        0.0019
     15 C         140.1421  144.0372  162.6527 C.3     1  UNL1        0.0001
     16 C         139.2091  144.9631  163.3755 C.3     1  UNL1        0.0000
     17 C         138.9478  144.7715  164.8400 C.3     1  UNL1        0.0001
     18 C         139.6194  143.6542  165.5819 C.3     1  UNL1        0.0019
     19 N         141.7518  138.4235  161.9162 N.3     1  UNL1       -0.2723
     20 C         140.5438  139.2817  161.6834 C.3     1  UNL1        0.0738
     21 C         139.6037  139.5762  162.8146 C.3     1  UNL1        0.0369
     22 C         139.8717  139.0123  164.1786 C.3     1  UNL1        0.0745
     23 C         141.0797  138.1541  164.4113 C.3     1  UNL1        0.0369
     24 C         142.0197  137.8597  163.2801 C.3     1  UNL1        0.0738
     25 C         142.6919  138.1290  160.7849 C.3     1  UNL1        0.0768
     26 C         143.9787  138.8899  160.6618 C.3     1  UNL1        0.0437
     27 C         144.1860  143.1880  161.9783 C.ar    1  UNL1        0.1387
     28 C         143.6010  142.8404  160.6415 C.ar    1  UNL1        0.0366
     29 C         143.5319  141.4078  160.2026 C.ar    1  UNL1       -0.0011
     30 C         144.0478  140.3225  161.1006 C.ar    1  UNL1       -0.0206
     31 C         144.6327  140.6701  162.4374 C.ar    1  UNL1       -0.0011
     32 C         144.7018  142.1029  162.8762 C.ar    1  UNL1        0.0366
     33 C         143.7995  145.0063  163.7933 C.3     1  UNL1        0.2525
     34 O         144.2551  144.6206  162.4172 O.3     1  UNL1       -0.4714
@<TRIPOS>BOND
     1    33    34    1
     2    34    27    1
     3    27    28   ar
     4    28    29   ar
     5    29    30   ar
     6    30    26    1
     7    26    25    1
     8    25    19    1
     9    19    20    1
    10    20    21    1
    11    21    22    1
    12    22     1    1
    13     1     3    1
    14     3     4   ar
    15     4     5   ar
    16     5     6   ar
    17     6     7   ar
    18     7     8   ar
    19     8     9   ar
    20     9    10   ar
    21    10    11   ar
    22    11    12    1
    23    12    13    1
    24    13    14    1
    25    14    15    1
    26    15    16    1
    27    16    17    1
    28    17    18    1
    29    22    23    1
    30    23    24    1
    31    30    31   ar
    32    31    32   ar
    33    32    27   ar
    34    24    19    1
    35    11     3   ar
    36    18    13    1
    37    10     5   ar
    38     1     2    1
@<TRIPOS>MOLECULE
*****
 34 38 0 0 0
SMALL
GASTEIGER

@<TRIPOS>ATOM
      1 N         143.9403  139.0945  163.3479 N.pl3   1  UNL1       -0.3059
      2 H         144.7214  138.5776  163.6512 H       1  UNL1        0.1495
      3 C         142.6452  139.0069  164.0996 C.ar    1  UNL1        0.1978
      4 N         141.5437  138.0207  163.8463 N.ar    1  UNL1       -0.2138
      5 C         140.4419  138.2944  164.8268 C.ar    1  UNL1        0.0999
      6 C         139.1101  137.6409  165.0481 C.ar    1  UNL1        0.0207
      7 C         138.1988  138.1427  166.1287 C.ar    1  UNL1        0.0016
      8 C         138.6194  139.2981  166.9879 C.ar    1  UNL1        0.0016
      9 C         139.9512  139.9516  166.7666 C.ar    1  UNL1        0.0188
     10 C         140.8625  139.4498  165.6860 C.ar    1  UNL1        0.0798
     11 N         142.2242  139.8901  165.2366 N.ar    1  UNL1       -0.2998
     12 C         143.0244  141.0160  165.8215 C.3     1  UNL1        0.1087
     13 C         142.9632  142.3806  165.2019 C.3     1  UNL1        0.0227
     14 C         144.1611  143.2821  165.2535 C.3     1  UNL1        0.0019
     15 C         144.1000  144.6468  164.6339 C.3     1  UNL1        0.0001
     16 C         142.8411  145.1100  163.9626 C.3     1  UNL1        0.0000
     17 C         141.6433  144.2086  163.9110 C.3     1  UNL1        0.0001
     18 C         141.7044  142.8439  164.5306 C.3     1  UNL1        0.0019
     19 N         144.2553  141.7199  159.7067 N.3     1  UNL1       -0.2723
     20 C         143.7772  140.3046  159.5718 C.3     1  UNL1        0.0738
     21 C         143.6722  139.4294  160.7855 C.3     1  UNL1        0.0369
     22 C         144.0453  139.9696  162.1342 C.3     1  UNL1        0.0745
     23 C         144.5234  141.3850  162.2691 C.3     1  UNL1        0.0369
     24 C         144.6285  142.2601  161.0554 C.3     1  UNL1        0.0738
     25 C         144.3604  142.5950  158.4930 C.3     1  UNL1        0.0768
     26 C         143.1809  143.4097  158.0514 C.3     1  UNL1        0.0437
     27 C         139.3103  143.1864  160.3359 C.ar    1  UNL1        0.1387
     28 C         140.3173  144.2474  160.6683 C.ar    1  UNL1        0.0366
     29 C         141.6074  144.3218  159.9068 C.ar    1  UNL1       -0.0011
     30 C         141.8907  143.3353  158.8129 C.ar    1  UNL1       -0.0206
     31 C         140.8837  142.2744  158.4805 C.ar    1  UNL1       -0.0011
     32 C         139.5935  142.2000  159.2420 C.ar    1  UNL1        0.0366
     33 C         137.9678  142.3999  162.4166 C.3     1  UNL1        0.2525
     34 O         138.0201  143.1120  161.0973 O.3     1  UNL1       -0.4714
@<TRIPOS>BOND
     1    33    34    1
     2    34    27    1
     3    27    28   ar
     4    28    29   ar
     5    29    30   ar
     6    30    26    1
     7    26    25    1
     8    25    19    1
     9    19    20    1
    10    20    21    1
    11    21    22    1
    12    22     1    1
    13     1     3    1
    14     3     4   ar
    15     4     5   ar
    16     5     6   ar
    17     6     7   ar
    18     7     8   ar
    19     8     9   ar
    20     9    10   ar
    21    10    11   ar
    22    11    12    1
    23    12    13    1
    24    13    14    1
    25    14    15    1
    26    15    16    1
    27    16    17    1
    28    17    18    1
    29    22    23    1
    30    23    24    1
    31    30    31   ar
    32    31    32   ar
    33    32    27   ar
    34    24    19    1
    35    11     3   ar
    36    18    13    1
    37    10     5   ar
    38     1     2    1
@<TRIPOS>MOLECULE
*****
 34 38 0 0 0
SMALL
GASTEIGER

@<TRIPOS>ATOM
      1 N         144.0178  142.7939  164.3886 N.pl3   1  UNL1       -0.3059
      2 H         144.7950  143.2435  164.7924 H       1  UNL1        0.1495
      3 C         143.8054  142.8515  162.9048 C.ar    1  UNL1        0.1978
      4 N         144.4905  141.9943  161.8822 N.ar    1  UNL1       -0.2138
      5 C         143.9791  142.3893  160.5285 C.ar    1  UNL1        0.0999
      6 C         144.2958  141.8885  159.1505 C.ar    1  UNL1        0.0207
      7 C         143.6113  142.4890  157.9586 C.ar    1  UNL1        0.0016
      8 C         142.6101  143.5904  158.1446 C.ar    1  UNL1        0.0016
      9 C         142.2935  144.0913  159.5226 C.ar    1  UNL1        0.0188
     10 C         142.9780  143.4907  160.7145 C.ar    1  UNL1        0.0798
     11 N         142.8706  143.7763  162.1832 N.ar    1  UNL1       -0.2998
     12 C         141.9841  144.8061  162.8186 C.3     1  UNL1        0.1087
     13 C         140.5404  144.4944  163.0800 C.3     1  UNL1        0.0227
     14 C         139.9259  144.8411  164.4038 C.3     1  UNL1        0.0019
     15 C         138.4822  144.5294  164.6652 C.3     1  UNL1        0.0001
     16 C         137.6527  143.8711  163.6028 C.3     1  UNL1        0.0000
     17 C         138.2671  143.5244  162.2791 C.3     1  UNL1        0.0001
     18 C         139.7109  143.8360  162.0176 C.3     1  UNL1        0.0019
     19 N         141.1024  140.5664  166.9941 N.3     1  UNL1       -0.2723
     20 C         141.0327  142.0617  166.8993 C.3     1  UNL1        0.0738
     21 C         142.0045  142.8043  166.0308 C.3     1  UNL1        0.0369
     22 C         143.0460  142.0514  165.2571 C.3     1  UNL1        0.0745
     23 C         143.1156  140.5560  165.3520 C.3     1  UNL1        0.0369
     24 C         142.1439  139.8135  166.2205 C.3     1  UNL1        0.0738
     25 C         140.1306  139.8238  167.8627 C.3     1  UNL1        0.0768
     26 C         138.8319  139.3386  167.2901 C.3     1  UNL1        0.0437
     27 C         138.3726  138.8662  162.8386 C.ar    1  UNL1        0.1387
     28 C         138.0207  140.1683  163.4949 C.ar    1  UNL1        0.0366
     29 C         138.1738  140.3258  164.9787 C.ar    1  UNL1       -0.0011
     30 C         138.6788  139.1811  165.8063 C.ar    1  UNL1       -0.0206
     31 C         139.0307  137.8790  165.1499 C.ar    1  UNL1       -0.0011
     32 C         138.8776  137.7216  163.6661 C.ar    1  UNL1        0.0366
     33 C         137.4622  139.7354  160.5657 C.3     1  UNL1        0.2525
     34 O         138.2195  138.7087  161.3548 O.3     1  UNL1       -0.4714
@<TRIPOS>BOND
     1    33    34    1
     2    34    27    1
     3    27    28   ar
     4    28    29   ar
     5    29    30   ar
     6    30    26    1
     7    26    25    1
     8    25    19    1
     9    19    20    1
    10    20    21    1
    11    21    22    1
    12    22     1    1
    13     1     3    1
    14     3     4   ar
    15     4     5   ar
    16     5     6   ar
    17     6     7   ar
    18     7     8   ar
    19     8     9   ar
    20     9    10   ar
    21    10    11   ar
    22    11    12    1
    23    12    13    1
    24    13    14    1
    25    14    15    1
    26    15    16    1
    27    16    17    1
    28    17    18    1
    29    22    23    1
    30    23    24    1
    31    30    31   ar
    32    31    32   ar
    33    32    27   ar
    34    24    19    1
    35    11     3   ar
    36    18    13    1
    37    10     5   ar
    38     1     2    1
@<TRIPOS>MOLECULE
*****
 34 38 0 0 0
SMALL
GASTEIGER

@<TRIPOS>ATOM
      1 N         143.2004  144.1696  162.8331 N.pl3   1  UNL1       -0.3059
      2 H         143.5566  145.0076  163.2074 H       1  UNL1        0.1495
      3 C         142.6647  144.1419  161.4323 C.ar    1  UNL1        0.1978
      4 N         143.3375  143.5230  160.2431 N.ar    1  UNL1       -0.2138
      5 C         142.4508  143.7269  159.0506 C.ar    1  UNL1        0.0999
      6 C         142.5973  143.3304  157.6114 C.ar    1  UNL1        0.0207
      7 C         141.5229  143.6789  156.6244 C.ar    1  UNL1        0.0016
      8 C         140.3021  144.4239  157.0765 C.ar    1  UNL1        0.0016
      9 C         140.1555  144.8204  158.5157 C.ar    1  UNL1        0.0188
     10 C         141.2299  144.4718  159.5027 C.ar    1  UNL1        0.0798
     11 N         141.3621  144.7283  160.9747 N.ar    1  UNL1       -0.2998
     12 C         140.3665  145.4454  161.8376 C.3     1  UNL1        0.1087
     13 C         139.4570  144.6656  162.7400 C.3     1  UNL1        0.0227
     14 C         139.4002  144.9841  164.2048 C.3     1  UNL1        0.0019
     15 C         138.4907  144.2043  165.1073 C.3     1  UNL1        0.0001
     16 C         137.6377  143.1059  164.5450 C.3     1  UNL1        0.0000
     17 C         137.6944  142.7874  163.0804 C.3     1  UNL1        0.0001
     18 C         138.6040  143.5672  162.1778 C.3     1  UNL1        0.0019
     19 N         143.1792  140.4223  165.3246 N.3     1  UNL1       -0.2723
     20 C         142.0986  141.4473  165.5025 C.3     1  UNL1        0.0738
     21 C         142.1057  142.6965  164.6720 C.3     1  UNL1        0.0369
     22 C         143.1933  142.9205  163.6636 C.3     1  UNL1        0.0745
     23 C         144.2739  141.8955  163.4857 C.3     1  UNL1        0.0369
     24 C         144.2668  140.6464  164.3162 C.3     1  UNL1        0.0738
     25 C         143.1722  139.1732  166.1551 C.3     1  UNL1        0.0768
     26 C         142.6352  137.8950  165.5826 C.3     1  UNL1        0.0437
     27 C         139.1323  137.9906  162.7595 C.ar    1  UNL1        0.1387
     28 C         140.5163  137.7584  162.2298 C.ar    1  UNL1        0.0366
     29 C         141.6839  137.7265  163.1708 C.ar    1  UNL1       -0.0011
     30 C         141.4676  137.9269  164.6416 C.ar    1  UNL1       -0.0206
     31 C         140.0836  138.1591  165.1713 C.ar    1  UNL1       -0.0011
     32 C         138.9159  138.1910  164.2302 C.ar    1  UNL1        0.0366
     33 C         137.6161  139.2914  161.0984 C.3     1  UNL1        0.2525
     34 O         137.9646  138.0225  161.8185 O.3     1  UNL1       -0.4714
@<TRIPOS>BOND
     1    33    34    1
     2    34    27    1
     3    27    28   ar
     4    28    29   ar
     5    29    30   ar
     6    30    26    1
     7    26    25    1
     8    25    19    1
     9    19    20    1
    10    20    21    1
    11    21    22    1
    12    22     1    1
    13     1     3    1
    14     3     4   ar
    15     4     5   ar
    16     5     6   ar
    17     6     7   ar
    18     7     8   ar
    19     8     9   ar
    20     9    10   ar
    21    10    11   ar
    22    11    12    1
    23    12    13    1
    24    13    14    1
    25    14    15    1
    26    15    16    1
    27    16    17    1
    28    17    18    1
    29    22    23    1
    30    23    24    1
    31    30    31   ar
    32    31    32   ar
    33    32    27   ar
    34    24    19    1
    35    11     3   ar
    36    18    13    1
    37    10     5   ar
    38     1     2    1
@<TRIPOS>MOLECULE
*****
 34 38 0 0 0
SMALL
GASTEIGER

@<TRIPOS>ATOM
      1 N         144.3116  143.3059  166.3372 N.pl3   1  UNL1       -0.3059
      2 H         144.9134  143.9368  166.7945 H       1  UNL1        0.1495
      3 C         143.2747  142.5568  167.1206 C.ar    1  UNL1        0.1978
      4 N         143.3159  142.2743  168.5932 N.ar    1  UNL1       -0.2138
      5 C         142.0812  141.5016  168.9517 C.ar    1  UNL1        0.0999
      6 C         141.5854  140.9504  170.2557 C.ar    1  UNL1        0.0207
      7 C         140.2854  140.2041  170.3086 C.ar    1  UNL1        0.0016
      8 C         139.4811  140.0090  169.0575 C.ar    1  UNL1        0.0016
      9 C         139.9770  140.5601  167.7536 C.ar    1  UNL1        0.0188
     10 C         141.2770  141.3064  167.7007 C.ar    1  UNL1        0.0798
     11 N         142.0147  141.9586  166.5690 N.ar    1  UNL1       -0.2998
     12 C         141.5702  142.0044  165.1371 C.3     1  UNL1        0.1087
     13 C         140.2792  142.6760  164.7736 C.3     1  UNL1        0.0227
     14 C         140.1778  144.1723  164.8034 C.3     1  UNL1        0.0019
     15 C         138.8868  144.8440  164.4399 C.3     1  UNL1        0.0001
     16 C         137.6971  144.0194  164.0466 C.3     1  UNL1        0.0000
     17 C         137.7985  142.5231  164.0168 C.3     1  UNL1        0.0001
     18 C         139.0895  141.8514  164.3803 C.3     1  UNL1        0.0019
     19 N         144.6717  142.6694  161.8971 N.3     1  UNL1       -0.2723
     20 C         145.2202  141.6474  162.8481 C.3     1  UNL1        0.0738
     21 C         145.1002  141.8595  164.3282 C.3     1  UNL1        0.0369
     22 C         144.4317  143.0937  164.8572 C.3     1  UNL1        0.0745
     23 C         143.8832  144.1158  163.9061 C.3     1  UNL1        0.0369
     24 C         144.0032  143.9037  162.4260 C.3     1  UNL1        0.0738
     25 C         144.7918  142.4573  160.4169 C.3     1  UNL1        0.0768
     26 C         143.7141  141.7243  159.6745 C.3     1  UNL1        0.0437
     27 C         141.4210  138.4304  161.7097 C.ar    1  UNL1        0.1387
     28 C         140.9484  139.8500  161.8165 C.ar    1  UNL1        0.0366
     29 C         141.7128  140.9480  161.1381 C.ar    1  UNL1       -0.0011
     30 C         142.9498  140.6263  160.3529 C.ar    1  UNL1       -0.0206
     31 C         143.4223  139.2067  160.2461 C.ar    1  UNL1       -0.0011
     32 C         142.6579  138.1087  160.9245 C.ar    1  UNL1        0.0366
     33 C         139.3271  137.6231  163.0189 C.3     1  UNL1        0.2525
     34 O         140.6566  137.3325  162.3881 O.3     1  UNL1       -0.4714
@<TRIPOS>BOND
     1    33    34    1
     2    34    27    1
     3    27    28   ar
     4    28    29   ar
     5    29    30   ar
     6    30    26    1
     7    26    25    1
     8    25    19    1
     9    19    20    1
    10    20    21    1
    11    21    22    1
    12    22     1    1
    13     1     3    1
    14     3     4   ar
    15     4     5   ar
    16     5     6   ar
    17     6     7   ar
    18     7     8   ar
    19     8     9   ar
    20     9    10   ar
    21    10    11   ar
    22    11    12    1
    23    12    13    1
    24    13    14    1
    25    14    15    1
    26    15    16    1
    27    16    17    1
    28    17    18    1
    29    22    23    1
    30    23    24    1
    31    30    31   ar
    32    31    32   ar
    33    32    27   ar
    34    24    19    1
    35    11     3   ar
    36    18    13    1
    37    10     5   ar
    38     1     2    1
@<TRIPOS>MOLECULE
*****
 34 38 0 0 0
SMALL
GASTEIGER

@<TRIPOS>ATOM
      1 N         143.0505  138.3884  165.5344 N.pl3   1  UNL1       -0.3059
      2 H         143.8704  137.8446  165.4990 H       1  UNL1        0.1495
      3 C         142.8179  139.3205  166.6864 C.ar    1  UNL1        0.1978
      4 N         142.9439  138.9739  168.1403 N.ar    1  UNL1       -0.2138
      5 C         142.6223  140.2020  168.9393 C.ar    1  UNL1        0.0999
      6 C         142.5833  140.4564  170.4170 C.ar    1  UNL1        0.0207
      7 C         142.2195  141.8165  170.9345 C.ar    1  UNL1        0.0016
      8 C         141.8948  142.9222  169.9743 C.ar    1  UNL1        0.0016
      9 C         141.9339  142.6678  168.4966 C.ar    1  UNL1        0.0188
     10 C         142.2977  141.3077  167.9790 C.ar    1  UNL1        0.0798
     11 N         142.4185  140.7629  166.5867 N.ar    1  UNL1       -0.2998
     12 C         142.1816  141.5265  165.3175 C.3     1  UNL1        0.1087
     13 C         140.8713  142.2212  165.0937 C.3     1  UNL1        0.0227
     14 C         139.5932  141.4361  165.1126 C.3     1  UNL1        0.0019
     15 C         138.2828  142.1308  164.8887 C.3     1  UNL1        0.0001
     16 C         138.2503  143.6107  164.6459 C.3     1  UNL1        0.0000
     17 C         139.5283  144.3958  164.6270 C.3     1  UNL1        0.0001
     18 C         140.8387  143.7011  164.8509 C.3     1  UNL1        0.0019
     19 N         140.0007  138.0778  162.2402 N.3     1  UNL1       -0.2723
     20 C         139.6236  137.7208  163.6474 C.3     1  UNL1        0.0738
     21 C         140.6402  137.8243  164.7455 C.3     1  UNL1        0.0369
     22 C         142.0339  138.2849  164.4364 C.3     1  UNL1        0.0745
     23 C         142.4109  138.6419  163.0291 C.3     1  UNL1        0.0369
     24 C         141.3943  138.5384  161.9310 C.3     1  UNL1        0.0738
     25 C         138.9840  137.9743  161.1420 C.3     1  UNL1        0.0768
     26 C         137.9586  139.0546  160.9650 C.3     1  UNL1        0.0437
     27 C         139.2117  143.1344  159.5385 C.ar    1  UNL1        0.1387
     28 C         138.8225  142.0795  158.5456 C.ar    1  UNL1        0.0366
     29 C         138.4048  140.7196  159.0211 C.ar    1  UNL1       -0.0011
     30 C         138.3763  140.4145  160.4895 C.ar    1  UNL1       -0.0206
     31 C         138.7656  141.4693  161.4824 C.ar    1  UNL1       -0.0011
     32 C         139.1833  142.8293  161.0068 C.ar    1  UNL1        0.0366
     33 C         140.2677  144.6541  157.7149 C.3     1  UNL1        0.2525
     34 O         139.6295  144.4943  159.0630 O.3     1  UNL1       -0.4714
@<TRIPOS>BOND
     1    33    34    1
     2    34    27    1
     3    27    28   ar
     4    28    29   ar
     5    29    30   ar
     6    30    26    1
     7    26    25    1
     8    25    19    1
     9    19    20    1
    10    20    21    1
    11    21    22    1
    12    22     1    1
    13     1     3    1
    14     3     4   ar
    15     4     5   ar
    16     5     6   ar
    17     6     7   ar
    18     7     8   ar
    19     8     9   ar
    20     9    10   ar
    21    10    11   ar
    22    11    12    1
    23    12    13    1
    24    13    14    1
    25    14    15    1
    26    15    16    1
    27    16    17    1
    28    17    18    1
    29    22    23    1
    30    23    24    1
    31    30    31   ar
    32    31    32   ar
    33    32    27   ar
    34    24    19    1
    35    11     3   ar
    36    18    13    1
    37    10     5   ar
    38     1     2    1
@<TRIPOS>MOLECULE
*****
 34 38 0 0 0
SMALL
GASTEIGER

@<TRIPOS>ATOM
      1 N         138.9751  137.6530  163.3456 N.pl3   1  UNL1       -0.3059
      2 H         138.3606  136.8842  163.3665 H       1  UNL1        0.1495
      3 C         139.5157  138.1457  162.0361 C.ar    1  UNL1        0.1978
      4 N         140.7426  137.6350  161.3405 N.ar    1  UNL1       -0.2138
      5 C         140.9095  138.4093  160.0666 C.ar    1  UNL1        0.0999
      6 C         141.9395  138.3413  158.9784 C.ar    1  UNL1        0.0207
      7 C         141.8457  139.2626  157.7984 C.ar    1  UNL1        0.0016
      8 C         140.7219  140.2518  157.7067 C.ar    1  UNL1        0.0016
      9 C         139.6919  140.3198  158.7949 C.ar    1  UNL1        0.0188
     10 C         139.7856  139.3985  159.9749 C.ar    1  UNL1        0.0798
     11 N         138.9242  139.2356  161.1920 N.ar    1  UNL1       -0.2998
     12 C         137.6884  140.0242  161.5095 C.3     1  UNL1        0.1087
     13 C         137.7996  141.3357  162.2287 C.3     1  UNL1        0.0227
     14 C         137.5153  141.4109  163.6997 C.3     1  UNL1        0.0019
     15 C         137.6266  142.7224  164.4191 C.3     1  UNL1        0.0001
     16 C         138.0221  143.9589  163.6674 C.3     1  UNL1        0.0000
     17 C         138.3064  143.8837  162.1966 C.3     1  UNL1        0.0001
     18 C         138.1951  142.5722  161.4772 C.3     1  UNL1        0.0019
     19 N         140.1621  139.6894  167.1789 N.3     1  UNL1       -0.2723
     20 C         141.2056  139.3470  166.1573 C.3     1  UNL1        0.0738
     21 C         140.8100  138.6682  164.8795 C.3     1  UNL1        0.0369
     22 C         139.3708  138.3318  164.6234 C.3     1  UNL1        0.0745
     23 C         138.3272  138.6742  165.6451 C.3     1  UNL1        0.0369
     24 C         138.7229  139.3530  166.9229 C.3     1  UNL1        0.0738
     25 C         140.5578  140.3682  168.4568 C.3     1  UNL1        0.0768
     26 C         141.0141  141.7969  168.4369 C.3     1  UNL1        0.0437
     27 C         143.0152  143.4690  164.7696 C.ar    1  UNL1        0.1387
     28 C         141.5202  143.4991  164.8878 C.ar    1  UNL1        0.0366
     29 C         140.8531  142.9418  166.1102 C.ar    1  UNL1       -0.0011
     30 C         141.6811  142.3543  167.2145 C.ar    1  UNL1       -0.0206
     31 C         143.1761  142.3241  167.0963 C.ar    1  UNL1       -0.0011
     32 C         143.8432  142.8815  165.8738 C.ar    1  UNL1        0.0366
     33 C         144.2836  143.0996  162.5324 C.3     1  UNL1        0.2525
     34 O         143.6823  144.0263  163.5472 O.3     1  UNL1       -0.4714
@<TRIPOS>BOND
     1    33    34    1
     2    34    27    1
     3    27    28   ar
     4    28    29   ar
     5    29    30   ar
     6    30    26    1
     7    26    25    1
     8    25    19    1
     9    19    20    1
    10    20    21    1
    11    21    22    1
    12    22     1    1
    13     1     3    1
    14     3     4   ar
    15     4     5   ar
    16     5     6   ar
    17     6     7   ar
    18     7     8   ar
    19     8     9   ar
    20     9    10   ar
    21    10    11   ar
    22    11    12    1
    23    12    13    1
    24    13    14    1
    25    14    15    1
    26    15    16    1
    27    16    17    1
    28    17    18    1
    29    22    23    1
    30    23    24    1
    31    30    31   ar
    32    31    32   ar
    33    32    27   ar
    34    24    19    1
    35    11     3   ar
    36    18    13    1
    37    10     5   ar
    38     1     2    1
