@<TRIPOS>MOLECULE
*****
 40 45 0 0 0
SMALL
GASTEIGER

@<TRIPOS>ATOM
      1 C         137.9507  142.8890  162.8512 C.3     1  UNL1        0.1177
      2 C         137.7044  141.8191  163.8732 C.3     1  UNL1        0.0310
      3 C         137.6832  140.3774  163.4596 C.3     1  UNL1        0.0194
      4 C         137.9083  140.0056  162.0239 C.3     1  UNL1        0.0700
      5 C         138.1546  141.0756  161.0018 C.3     1  UNL1        0.0194
      6 C         138.1758  142.5173  161.4155 C.3     1  UNL1        0.0310
      7 C         137.9291  140.8091  162.2028 C.3     1  UNL1        0.1563
      8 O         137.9483  142.1127  162.5768 O.3     1  UNL1       -0.3548
      9 C         137.9719  144.3307  163.2648 C.3     1  UNL1        0.1396
     10 O         137.0588  145.3159  162.5973 O.3     1  UNL1       -0.3817
     11 H         137.1983  146.1965  162.9796 H       1  UNL1        0.2105
     12 C         138.9062  144.7872  164.3459 C.3     1  UNL1        0.0619
     13 C         140.7192  141.7703  167.1497 C.ar    1  UNL1        0.2250
     14 C         142.1818  141.4490  167.0620 C.ar    1  UNL1        0.0593
     15 C         143.0400  142.1334  166.0397 C.ar    1  UNL1        0.0254
     16 C         142.4357  143.1391  165.1051 C.ar    1  UNL1        0.0990
     17 N         143.2939  143.8235  164.0828 N.ar    1  UNL1       -0.2400
     18 C         142.6896  144.8291  163.1482 C.ar    1  UNL1        0.1281
     19 C         141.2269  145.1503  163.2359 C.ar    1  UNL1        0.1567
     20 F         140.6226  146.1560  162.3013 F       1  UNL1       -0.2028
     21 C         140.3687  144.4659  164.2582 C.ar    1  UNL1        0.0285
     22 C         140.9731  143.4603  165.1928 C.ar    1  UNL1        0.1002
     23 N         140.1149  142.7759  166.2151 N.ar    1  UNL1       -0.2104
     24 C         139.9600  141.4762  169.6168 C.3     1  UNL1        0.2542
     25 O         139.8610  141.0859  168.1719 O.3     1  UNL1       -0.4561
     26 N         137.8872  138.5640  161.6103 N.3     1  UNL1       -0.2926
     27 H         137.3301  138.5105  160.7575 H       1  UNL1        0.1236
     28 C         139.1737  137.8443  161.3329 C.3     1  UNL1        0.1152
     29 C         140.3763  138.0999  162.1921 C.ar    1  UNL1        0.0765
     30 C         140.5543  137.3461  163.4767 C.ar    1  UNL1        0.0193
     31 C         141.7569  137.6017  164.3359 C.ar    1  UNL1        0.0411
     32 C         142.7817  138.6111  163.9105 C.ar    1  UNL1        0.1708
     33 C         142.6038  139.3650  162.6260 C.ar    1  UNL1        0.1682
     34 N         141.4011  139.1093  161.7668 N.ar    1  UNL1       -0.2304
     35 N         143.6285  140.3744  162.2007 N.am    1  UNL1       -0.2639
     36 C         144.8312  140.6300  163.0598 C.2     1  UNL1        0.2718
     37 O         145.8560  141.6394  162.6345 O.2     1  UNL1       -0.2707
     38 C         145.0092  139.8762  164.3444 C.3     1  UNL1        0.2898
     39 O         143.9844  138.8668  164.7698 O.3     1  UNL1       -0.4628
     40 H         143.5118  140.8691  161.3575 H       1  UNL1        0.1565
@<TRIPOS>BOND
     1    24    25    1
     2    25    13    1
     3    13    14   ar
     4    14    15   ar
     5    15    16   ar
     6    16    17   ar
     7    17    18   ar
     8    18    19   ar
     9    19    20    1
    10    19    21   ar
    11    21    12    1
    12    12     9    1
    13     9    10    1
    14     9     1    1
    15     1     2    1
    16     2     3    1
    17     3     4    1
    18     4    26    1
    19    26    28    1
    20    28    29    1
    21    29    30   ar
    22    30    31   ar
    23    31    32   ar
    24    32    33   ar
    25    33    34   ar
    26    33    35    1
    27    35    36   am
    28    36    37    2
    29    36    38    1
    30    38    39    1
    31     4     5    1
    32     5     6    1
    33     4     7    1
    34     7     8    1
    35    21    22   ar
    36    22    23   ar
    37    23    13   ar
    38    22    16   ar
    39     6     1    1
    40     8     1    1
    41    34    29   ar
    42    39    32    1
    43    10    11    1
    44    26    27    1
    45    35    40    1
@<TRIPOS>MOLECULE
*****
 40 45 0 0 0
SMALL
GASTEIGER

@<TRIPOS>ATOM
      1 C         143.9658  142.6070  163.3126 C.3     1  UNL1        0.1177
      2 C         143.3277  143.2369  164.5152 C.3     1  UNL1        0.0310
      3 C         142.3279  144.3415  164.3416 C.3     1  UNL1        0.0194
      4 C         141.9661  144.8163  162.9655 C.3     1  UNL1        0.0700
      5 C         142.6042  144.1865  161.7629 C.3     1  UNL1        0.0194
      6 C         143.6040  143.0818  161.9365 C.3     1  UNL1        0.0310
      7 C         142.5192  144.2081  163.0105 C.3     1  UNL1        0.1563
      8 O         143.4233  143.2093  163.1674 O.3     1  UNL1       -0.3548
      9 C         144.9656  141.5024  163.4862 C.3     1  UNL1        0.1396
     10 O         146.4190  141.7572  163.2166 O.3     1  UNL1       -0.3817
     11 H         146.9246  140.9448  163.3756 H       1  UNL1        0.2105
     12 C         144.5120  140.1430  163.9293 C.3     1  UNL1        0.0619
     13 C         140.8025  139.8823  166.4634 C.ar    1  UNL1        0.2250
     14 C         139.5471  139.2888  165.8963 C.ar    1  UNL1        0.0593
     15 C         139.5281  138.7822  164.4846 C.ar    1  UNL1        0.0254
     16 C         140.7646  138.8690  163.6399 C.ar    1  UNL1        0.0990
     17 N         140.7456  138.3624  162.2282 N.ar    1  UNL1       -0.2400
     18 C         141.9821  138.4493  161.3835 C.ar    1  UNL1        0.1281
     19 C         143.2376  139.0428  161.9505 C.ar    1  UNL1        0.1567
     20 F         144.4741  139.1297  161.1059 F       1  UNL1       -0.2028
     21 C         143.2566  139.5495  163.3623 C.ar    1  UNL1        0.0285
     22 C         142.0200  139.4626  164.2070 C.ar    1  UNL1        0.1002
     23 N         142.0390  139.9692  165.6187 N.ar    1  UNL1       -0.2104
     24 C         139.5999  140.2575  168.7356 C.3     1  UNL1        0.2542
     25 O         140.8215  140.3890  167.8751 O.3     1  UNL1       -0.4561
     26 N         140.9663  145.9209  162.7920 N.3     1  UNL1       -0.2926
     27 H         141.1323  146.3263  161.8708 H       1  UNL1        0.1236
     28 C         139.4984  145.6239  162.8761 C.3     1  UNL1        0.1152
     29 C         138.9965  144.2378  162.5993 C.ar    1  UNL1        0.0765
     30 C         138.5044  143.3792  163.7266 C.ar    1  UNL1        0.0193
     31 C         138.0026  141.9930  163.4498 C.ar    1  UNL1        0.0411
     32 C         137.9928  141.4653  162.0458 C.ar    1  UNL1        0.1708
     33 C         138.4849  142.3238  160.9185 C.ar    1  UNL1        0.1682
     34 N         138.9867  143.7101  161.1952 N.ar    1  UNL1       -0.2304
     35 N         138.4751  141.7961  159.5144 N.am    1  UNL1       -0.2639
     36 C         137.9732  140.4100  159.2376 C.2     1  UNL1        0.2718
     37 O         137.9635  139.8823  157.8335 O.2     1  UNL1       -0.2707
     38 C         137.4812  139.5514  160.3649 C.3     1  UNL1        0.2898
     39 O         137.4910  140.0791  161.7690 O.3     1  UNL1       -0.4628
     40 H         138.7980  142.3596  158.7745 H       1  UNL1        0.1565
@<TRIPOS>BOND
     1    24    25    1
     2    25    13    1
     3    13    14   ar
     4    14    15   ar
     5    15    16   ar
     6    16    17   ar
     7    17    18   ar
     8    18    19   ar
     9    19    20    1
    10    19    21   ar
    11    21    12    1
    12    12     9    1
    13     9    10    1
    14     9     1    1
    15     1     2    1
    16     2     3    1
    17     3     4    1
    18     4    26    1
    19    26    28    1
    20    28    29    1
    21    29    30   ar
    22    30    31   ar
    23    31    32   ar
    24    32    33   ar
    25    33    34   ar
    26    33    35    1
    27    35    36   am
    28    36    37    2
    29    36    38    1
    30    38    39    1
    31     4     5    1
    32     5     6    1
    33     4     7    1
    34     7     8    1
    35    21    22   ar
    36    22    23   ar
    37    23    13   ar
    38    22    16   ar
    39     6     1    1
    40     8     1    1
    41    34    29   ar
    42    39    32    1
    43    10    11    1
    44    26    27    1
    45    35    40    1
@<TRIPOS>MOLECULE
*****
 40 45 0 0 0
SMALL
GASTEIGER

@<TRIPOS>ATOM
      1 C         143.1933  138.9515  161.8973 C.3     1  UNL1        0.1177
      2 C         143.6311  138.7181  163.3129 C.3     1  UNL1        0.0310
      3 C         144.5139  139.7178  163.9994 C.3     1  UNL1        0.0194
      4 C         144.9589  140.9509  163.2703 C.3     1  UNL1        0.0700
      5 C         144.5211  141.1843  161.8548 C.3     1  UNL1        0.0194
      6 C         143.6382  140.1845  161.1683 C.3     1  UNL1        0.0310
      7 C         144.4754  140.4316  162.8526 C.3     1  UNL1        0.1563
      8 O         143.6771  139.5277  162.2318 O.3     1  UNL1       -0.3548
      9 C         142.3105  137.9518  161.2108 C.3     1  UNL1        0.1396
     10 O         142.9138  136.7494  160.5473 O.3     1  UNL1       -0.3817
     11 H         142.2099  136.2097  160.1546 H       1  UNL1        0.2105
     12 C         140.8244  138.1546  161.1878 C.3     1  UNL1        0.0619
     13 C         138.2275  141.8156  161.5078 C.ar    1  UNL1        0.2250
     14 C         137.4899  142.1029  162.7819 C.ar    1  UNL1        0.0593
     15 C         137.6179  141.1698  163.9494 C.ar    1  UNL1        0.0254
     16 C         138.4835  139.9494  163.8427 C.ar    1  UNL1        0.0990
     17 N         138.6116  139.0163  165.0102 N.ar    1  UNL1       -0.2400
     18 C         139.4772  137.7960  164.9035 C.ar    1  UNL1        0.1281
     19 C         140.2149  137.5087  163.6293 C.ar    1  UNL1        0.1567
     20 F         141.0805  136.2884  163.5227 F       1  UNL1       -0.2028
     21 C         140.0868  138.4418  162.4619 C.ar    1  UNL1        0.0285
     22 C         139.2211  139.6622  162.5686 C.ar    1  UNL1        0.1002
     23 N         139.0931  140.5953  161.4012 N.ar    1  UNL1       -0.2104
     24 C         139.2547  142.9402  159.4031 C.3     1  UNL1        0.2542
     25 O         138.0994  142.7487  160.3404 O.3     1  UNL1       -0.4561
     26 N         145.8417  141.9505  163.9568 N.3     1  UNL1       -0.2926
     27 H         146.3780  142.4199  163.2271 H       1  UNL1        0.1236
     28 C         145.2356  143.0263  164.8085 C.3     1  UNL1        0.1152
     29 C         143.7787  143.3572  164.6746 C.ar    1  UNL1        0.0765
     30 C         142.7868  142.7812  165.6413 C.ar    1  UNL1        0.0193
     31 C         141.3299  143.1121  165.5074 C.ar    1  UNL1        0.0411
     32 C         140.8649  144.0191  164.4069 C.ar    1  UNL1        0.1708
     33 C         141.8567  144.5951  163.4402 C.ar    1  UNL1        0.1682
     34 N         143.3137  144.2641  163.5741 N.ar    1  UNL1       -0.2304
     35 N         141.3916  145.5020  162.3397 N.am    1  UNL1       -0.2639
     36 C         139.9348  145.8329  162.2058 C.2     1  UNL1        0.2718
     37 O         139.4697  146.7399  161.1053 O.2     1  UNL1       -0.2707
     38 C         138.9429  145.2569  163.1725 C.3     1  UNL1        0.2898
     39 O         139.4079  144.3500  164.2730 O.3     1  UNL1       -0.4628
     40 H         142.0426  145.8800  161.7052 H       1  UNL1        0.1565
@<TRIPOS>BOND
     1    24    25    1
     2    25    13    1
     3    13    14   ar
     4    14    15   ar
     5    15    16   ar
     6    16    17   ar
     7    17    18   ar
     8    18    19   ar
     9    19    20    1
    10    19    21   ar
    11    21    12    1
    12    12     9    1
    13     9    10    1
    14     9     1    1
    15     1     2    1
    16     2     3    1
    17     3     4    1
    18     4    26    1
    19    26    28    1
    20    28    29    1
    21    29    30   ar
    22    30    31   ar
    23    31    32   ar
    24    32    33   ar
    25    33    34   ar
    26    33    35    1
    27    35    36   am
    28    36    37    2
    29    36    38    1
    30    38    39    1
    31     4     5    1
    32     5     6    1
    33     4     7    1
    34     7     8    1
    35    21    22   ar
    36    22    23   ar
    37    23    13   ar
    38    22    16   ar
    39     6     1    1
    40     8     1    1
    41    34    29   ar
    42    39    32    1
    43    10    11    1
    44    26    27    1
    45    35    40    1
@<TRIPOS>MOLECULE
*****
 40 45 0 0 0
SMALL
GASTEIGER

@<TRIPOS>ATOM
      1 C         142.1382  138.3897  164.0108 C.3     1  UNL1        0.1177
      2 C         143.1368  138.8891  165.0125 C.3     1  UNL1        0.0310
      3 C         144.2872  139.7409  164.5643 C.3     1  UNL1        0.0194
      4 C         144.4391  140.0933  163.1141 C.3     1  UNL1        0.0700
      5 C         143.4405  139.5940  162.1124 C.3     1  UNL1        0.0194
      6 C         142.2901  138.7422  162.5607 C.3     1  UNL1        0.0310
      7 C         143.7924  139.6238  163.3122 C.3     1  UNL1        0.1563
      8 O         142.7521  138.8536  163.7175 O.3     1  UNL1       -0.3548
      9 C         140.9878  137.5380  164.4590 C.3     1  UNL1        0.1396
     10 O         141.0655  136.0454  164.3319 O.3     1  UNL1       -0.3817
     11 H         140.2450  135.6494  164.6649 H       1  UNL1        0.2105
     12 C         139.7597  138.1788  165.0345 C.3     1  UNL1        0.0619
     13 C         140.2868  142.3409  166.6619 C.ar    1  UNL1        0.2250
     14 C         139.6509  143.5057  165.9627 C.ar    1  UNL1        0.0593
     15 C         138.8393  143.2831  164.7210 C.ar    1  UNL1        0.0254
     16 C         138.6636  141.8958  164.1785 C.ar    1  UNL1        0.0990
     17 N         137.8520  141.6732  162.9369 N.ar    1  UNL1       -0.2400
     18 C         137.6762  140.2858  162.3944 C.ar    1  UNL1        0.1281
     19 C         138.3121  139.1210  163.0936 C.ar    1  UNL1        0.1567
     20 F         138.1364  137.7336  162.5512 F       1  UNL1       -0.2028
     21 C         139.1238  139.3435  164.3353 C.ar    1  UNL1        0.0285
     22 C         139.2995  140.7310  164.8777 C.ar    1  UNL1        0.1002
     23 N         140.1111  140.9536  166.1194 N.ar    1  UNL1       -0.2104
     24 C         140.4634  143.1810  169.1140 C.3     1  UNL1        0.2542
     25 O         141.0985  142.5635  167.9035 O.3     1  UNL1       -0.4561
     26 N         145.5895  140.9451  162.6659 N.3     1  UNL1       -0.2926
     27 H         145.6151  140.8931  161.6475 H       1  UNL1        0.1236
     28 C         145.6302  142.4006  163.0263 C.3     1  UNL1        0.1152
     29 C         144.3757  143.2213  162.9751 C.ar    1  UNL1        0.0765
     30 C         143.7731  143.7499  164.2430 C.ar    1  UNL1        0.0193
     31 C         142.5186  144.5706  164.1918 C.ar    1  UNL1        0.0411
     32 C         141.8667  144.8627  162.8729 C.ar    1  UNL1        0.1708
     33 C         142.4692  144.3341  161.6050 C.ar    1  UNL1        0.1682
     34 N         143.7238  143.5134  161.6562 N.ar    1  UNL1       -0.2304
     35 N         141.8173  144.6262  160.2861 N.am    1  UNL1       -0.2639
     36 C         140.5628  145.4469  160.2349 C.2     1  UNL1        0.2718
     37 O         139.9109  145.7389  158.9159 O.2     1  UNL1       -0.2707
     38 C         139.9602  145.9755  161.5028 C.3     1  UNL1        0.2898
     39 O         140.6121  145.6835  162.8218 O.3     1  UNL1       -0.4628
     40 H         142.2128  144.2792  159.4539 H       1  UNL1        0.1565
@<TRIPOS>BOND
     1    24    25    1
     2    25    13    1
     3    13    14   ar
     4    14    15   ar
     5    15    16   ar
     6    16    17   ar
     7    17    18   ar
     8    18    19   ar
     9    19    20    1
    10    19    21   ar
    11    21    12    1
    12    12     9    1
    13     9    10    1
    14     9     1    1
    15     1     2    1
    16     2     3    1
    17     3     4    1
    18     4    26    1
    19    26    28    1
    20    28    29    1
    21    29    30   ar
    22    30    31   ar
    23    31    32   ar
    24    32    33   ar
    25    33    34   ar
    26    33    35    1
    27    35    36   am
    28    36    37    2
    29    36    38    1
    30    38    39    1
    31     4     5    1
    32     5     6    1
    33     4     7    1
    34     7     8    1
    35    21    22   ar
    36    22    23   ar
    37    23    13   ar
    38    22    16   ar
    39     6     1    1
    40     8     1    1
    41    34    29   ar
    42    39    32    1
    43    10    11    1
    44    26    27    1
    45    35    40    1
@<TRIPOS>MOLECULE
*****
 40 45 0 0 0
SMALL
GASTEIGER

@<TRIPOS>ATOM
      1 C         143.0028  141.3680  166.1763 C.3     1  UNL1        0.1177
      2 C         143.2591  142.0703  164.8759 C.3     1  UNL1        0.0310
      3 C         143.7874  141.3028  163.7004 C.3     1  UNL1        0.0194
      4 C         144.0594  139.8330  163.8253 C.3     1  UNL1        0.0700
      5 C         143.8032  139.1306  165.1257 C.3     1  UNL1        0.0194
      6 C         143.2748  139.8982  166.3012 C.3     1  UNL1        0.0310
      7 C         143.7703  140.2113  164.4970 C.3     1  UNL1        0.1563
      8 O         143.2926  140.9052  165.5600 O.3     1  UNL1       -0.3548
      9 C         142.4745  142.1354  167.3518 C.3     1  UNL1        0.1396
     10 O         143.4176  142.6386  168.4042 O.3     1  UNL1       -0.3817
     11 H         142.9169  143.1103  169.0882 H       1  UNL1        0.2105
     12 C         141.0031  142.3997  167.4750 C.3     1  UNL1        0.0619
     13 C         138.9949  143.8894  163.7337 C.ar    1  UNL1        0.2250
     14 C         138.0129  143.0158  163.0109 C.ar    1  UNL1        0.0593
     15 C         137.7002  141.6457  163.5352 C.ar    1  UNL1        0.0254
     16 C         138.3696  141.1491  164.7823 C.ar    1  UNL1        0.0990
     17 N         138.0570  139.7790  165.3067 N.ar    1  UNL1       -0.2400
     18 C         138.7263  139.2824  166.5538 C.ar    1  UNL1        0.1281
     19 C         139.7084  140.1560  167.2766 C.ar    1  UNL1        0.1567
     20 F         140.3778  139.6594  168.5237 F       1  UNL1       -0.2028
     21 C         140.0211  141.5261  166.7523 C.ar    1  UNL1        0.0285
     22 C         139.3516  142.0227  165.5051 C.ar    1  UNL1        0.1002
     23 N         139.6643  143.3929  164.9808 N.ar    1  UNL1       -0.2104
     24 C         140.5880  145.5046  162.4676 C.3     1  UNL1        0.2542
     25 O         139.3075  145.2596  163.2093 O.3     1  UNL1       -0.4561
     26 N         144.5877  139.0655  162.6498 N.3     1  UNL1       -0.2926
     27 H         145.4444  138.6061  162.9590 H       1  UNL1        0.1236
     28 C         143.7410  138.0112  162.0006 C.3     1  UNL1        0.1152
     29 C         142.2611  138.2153  161.8664 C.ar    1  UNL1        0.0765
     30 C         141.3223  137.5562  162.8330 C.ar    1  UNL1        0.0193
     31 C         139.8424  137.7603  162.6988 C.ar    1  UNL1        0.0411
     32 C         139.3011  138.6235  161.5980 C.ar    1  UNL1        0.1708
     33 C         140.2398  139.2826  160.6313 C.ar    1  UNL1        0.1682
     34 N         141.7198  139.0785  160.7655 N.ar    1  UNL1       -0.2304
     35 N         139.6985  140.1458  159.5304 N.am    1  UNL1       -0.2639
     36 C         138.2186  140.3499  159.3962 C.2     1  UNL1        0.2718
     37 O         137.6773  141.2131  158.2953 O.2     1  UNL1       -0.2707
     38 C         137.2798  139.6908  160.3629 C.3     1  UNL1        0.2898
     39 O         137.8211  138.8276  161.4638 O.3     1  UNL1       -0.4628
     40 H         140.3146  140.5783  158.8960 H       1  UNL1        0.1565
@<TRIPOS>BOND
     1    24    25    1
     2    25    13    1
     3    13    14   ar
     4    14    15   ar
     5    15    16   ar
     6    16    17   ar
     7    17    18   ar
     8    18    19   ar
     9    19    20    1
    10    19    21   ar
    11    21    12    1
    12    12     9    1
    13     9    10    1
    14     9     1    1
    15     1     2    1
    16     2     3    1
    17     3     4    1
    18     4    26    1
    19    26    28    1
    20    28    29    1
    21    29    30   ar
    22    30    31   ar
    23    31    32   ar
    24    32    33   ar
    25    33    34   ar
    26    33    35    1
    27    35    36   am
    28    36    37    2
    29    36    38    1
    30    38    39    1
    31     4     5    1
    32     5     6    1
    33     4     7    1
    34     7     8    1
    35    21    22   ar
    36    22    23   ar
    37    23    13   ar
    38    22    16   ar
    39     6     1    1
    40     8     1    1
    41    34    29   ar
    42    39    32    1
    43    10    11    1
    44    26    27    1
    45    35    40    1
@<TRIPOS>MOLECULE
*****
 40 45 0 0 0
SMALL
GASTEIGER

@<TRIPOS>ATOM
      1 C         140.6885  144.6878  162.1344 C.3     1  UNL1        0.1177
      2 C         141.1754  143.6666  161.1495 C.3     1  UNL1        0.0310
      3 C         142.6054  143.2150  161.1824 C.3     1  UNL1        0.0194
      4 C         143.5486  143.7846  162.2003 C.3     1  UNL1        0.0700
      5 C         143.0617  144.8058  163.1852 C.3     1  UNL1        0.0194
      6 C         141.6316  145.2574  163.1523 C.3     1  UNL1        0.0310
      7 C         142.7740  144.0629  162.2212 C.3     1  UNL1        0.1563
      8 O         141.4809  144.4712  162.1914 O.3     1  UNL1       -0.3548
      9 C         139.2586  145.1394  162.1015 C.3     1  UNL1        0.1396
     10 O         138.8946  146.4288  161.4271 O.3     1  UNL1       -0.3817
     11 H         137.9375  146.5708  161.4960 H       1  UNL1        0.2105
     12 C         138.1924  144.3015  162.7430 C.3     1  UNL1        0.0619
     13 C         137.7827  140.1091  161.1600 C.ar    1  UNL1        0.2250
     14 C         138.1633  138.9416  162.0215 C.ar    1  UNL1        0.0593
     15 C         138.6805  139.1716  163.4106 C.ar    1  UNL1        0.0254
     16 C         138.8171  140.5691  163.9383 C.ar    1  UNL1        0.0990
     17 N         139.3343  140.7991  165.3274 N.ar    1  UNL1       -0.2400
     18 C         139.4708  142.1965  165.8551 C.ar    1  UNL1        0.1281
     19 C         139.0902  143.3640  164.9936 C.ar    1  UNL1        0.1567
     20 F         139.2268  144.7615  165.5212 F       1  UNL1       -0.2028
     21 C         138.5730  143.1341  163.6045 C.ar    1  UNL1        0.0285
     22 C         138.4365  141.7365  163.0768 C.ar    1  UNL1        0.1002
     23 N         137.9193  141.5065  161.6877 N.ar    1  UNL1       -0.2104
     24 C         137.9115  140.5693  158.6063 C.3     1  UNL1        0.2542
     25 O         137.2656  139.8791  159.7709 O.3     1  UNL1       -0.4561
     26 N         144.9786  143.3330  162.2332 N.3     1  UNL1       -0.2926
     27 H         145.4828  143.9946  162.8235 H       1  UNL1        0.1236
     28 C         145.3203  141.9602  162.7319 C.3     1  UNL1        0.1152
     29 C         144.4869  141.3226  163.8038 C.ar    1  UNL1        0.0765
     30 C         143.9775  139.9231  163.6248 C.ar    1  UNL1        0.0193
     31 C         143.1441  139.2855  164.6967 C.ar    1  UNL1        0.0411
     32 C         142.8200  140.0474  165.9475 C.ar    1  UNL1        0.1708
     33 C         143.3293  141.4468  166.1264 C.ar    1  UNL1        0.1682
     34 N         144.1628  142.0845  165.0546 N.ar    1  UNL1       -0.2304
     35 N         143.0052  142.2087  167.3772 N.am    1  UNL1       -0.2639
     36 C         142.1718  141.5711  168.4490 C.2     1  UNL1        0.2718
     37 O         141.8477  142.3330  169.6998 O.2     1  UNL1       -0.2707
     38 C         141.6624  140.1716  168.2701 C.3     1  UNL1        0.2898
     39 O         141.9865  139.4097  167.0193 O.3     1  UNL1       -0.4628
     40 H         143.3395  143.1272  167.4947 H       1  UNL1        0.1565
@<TRIPOS>BOND
     1    24    25    1
     2    25    13    1
     3    13    14   ar
     4    14    15   ar
     5    15    16   ar
     6    16    17   ar
     7    17    18   ar
     8    18    19   ar
     9    19    20    1
    10    19    21   ar
    11    21    12    1
    12    12     9    1
    13     9    10    1
    14     9     1    1
    15     1     2    1
    16     2     3    1
    17     3     4    1
    18     4    26    1
    19    26    28    1
    20    28    29    1
    21    29    30   ar
    22    30    31   ar
    23    31    32   ar
    24    32    33   ar
    25    33    34   ar
    26    33    35    1
    27    35    36   am
    28    36    37    2
    29    36    38    1
    30    38    39    1
    31     4     5    1
    32     5     6    1
    33     4     7    1
    34     7     8    1
    35    21    22   ar
    36    22    23   ar
    37    23    13   ar
    38    22    16   ar
    39     6     1    1
    40     8     1    1
    41    34    29   ar
    42    39    32    1
    43    10    11    1
    44    26    27    1
    45    35    40    1
@<TRIPOS>MOLECULE
*****
 40 45 0 0 0
SMALL
GASTEIGER

@<TRIPOS>ATOM
      1 C         138.1454  139.8402  162.4936 C.3     1  UNL1        0.1177
      2 C         137.7139  140.5734  163.7290 C.3     1  UNL1        0.0310
      3 C         137.5574  142.0649  163.6999 C.3     1  UNL1        0.0194
      4 C         137.8324  142.8233  162.4353 C.3     1  UNL1        0.0700
      5 C         138.2638  142.0902  161.1998 C.3     1  UNL1        0.0194
      6 C         138.4203  140.5986  161.2290 C.3     1  UNL1        0.0310
      7 C         137.9318  142.0066  162.4027 C.3     1  UNL1        0.1563
      8 O         138.0734  140.6580  162.4290 O.3     1  UNL1       -0.3548
      9 C         138.3019  138.3488  162.5227 C.3     1  UNL1        0.1396
     10 O         137.4024  137.4838  161.6904 O.3     1  UNL1       -0.3817
     11 H         137.6354  136.5518  161.8245 H       1  UNL1        0.2105
     12 C         139.3580  137.7221  163.3842 C.3     1  UNL1        0.0619
     13 C         140.1366  139.7735  167.3130 C.ar    1  UNL1        0.2250
     14 C         141.4368  140.4853  167.5427 C.ar    1  UNL1        0.0593
     15 C         142.4775  140.5132  166.4629 C.ar    1  UNL1        0.0254
     16 C         142.2180  139.8294  165.1533 C.ar    1  UNL1        0.0990
     17 N         143.2587  139.8574  164.0734 N.ar    1  UNL1       -0.2400
     18 C         142.9992  139.1736  162.7638 C.ar    1  UNL1        0.1281
     19 C         141.6989  138.4618  162.5341 C.ar    1  UNL1        0.1567
     20 F         141.4395  137.7780  161.2245 F       1  UNL1       -0.2028
     21 C         140.6582  138.4339  163.6139 C.ar    1  UNL1        0.0285
     22 C         140.9178  139.1177  164.9236 C.ar    1  UNL1        0.1002
     23 N         139.8771  139.0897  166.0034 N.ar    1  UNL1       -0.2104
     24 C         139.3839  140.3648  169.7283 C.3     1  UNL1        0.2542
     25 O         139.0958  139.7456  168.3929 O.3     1  UNL1       -0.4561
     26 N         137.6758  144.3148  162.4061 N.3     1  UNL1       -0.2926
     27 H         136.9119  144.5432  163.0423 H       1  UNL1        0.1236
     28 C         138.8295  145.1975  162.7803 C.3     1  UNL1        0.1152
     29 C         140.2119  144.6237  162.8782 C.ar    1  UNL1        0.0765
     30 C         140.8213  144.3606  164.2234 C.ar    1  UNL1        0.0193
     31 C         142.2037  143.7868  164.3212 C.ar    1  UNL1        0.0411
     32 C         142.9768  143.4761  163.0739 C.ar    1  UNL1        0.1708
     33 C         142.3675  143.7392  161.7287 C.ar    1  UNL1        0.1682
     34 N         140.9850  144.3130  161.6309 N.ar    1  UNL1       -0.2304
     35 N         143.1406  143.4285  160.4814 N.am    1  UNL1       -0.2639
     36 C         144.5230  142.8548  160.5793 C.2     1  UNL1        0.2718
     37 O         145.2961  142.5441  159.3319 O.2     1  UNL1       -0.2707
     38 C         145.1325  142.5917  161.9245 C.3     1  UNL1        0.2898
     39 O         144.3594  142.9023  163.1718 O.3     1  UNL1       -0.4628
     40 H         142.7407  143.6012  159.5986 H       1  UNL1        0.1565
@<TRIPOS>BOND
     1    24    25    1
     2    25    13    1
     3    13    14   ar
     4    14    15   ar
     5    15    16   ar
     6    16    17   ar
     7    17    18   ar
     8    18    19   ar
     9    19    20    1
    10    19    21   ar
    11    21    12    1
    12    12     9    1
    13     9    10    1
    14     9     1    1
    15     1     2    1
    16     2     3    1
    17     3     4    1
    18     4    26    1
    19    26    28    1
    20    28    29    1
    21    29    30   ar
    22    30    31   ar
    23    31    32   ar
    24    32    33   ar
    25    33    34   ar
    26    33    35    1
    27    35    36   am
    28    36    37    2
    29    36    38    1
    30    38    39    1
    31     4     5    1
    32     5     6    1
    33     4     7    1
    34     7     8    1
    35    21    22   ar
    36    22    23   ar
    37    23    13   ar
    38    22    16   ar
    39     6     1    1
    40     8     1    1
    41    34    29   ar
    42    39    32    1
    43    10    11    1
    44    26    27    1
    45    35    40    1
@<TRIPOS>MOLECULE
*****
 40 45 0 0 0
SMALL
GASTEIGER

@<TRIPOS>ATOM
      1 C         139.5822  143.6551  163.3440 C.3     1  UNL1        0.1177
      2 C         139.9677  143.3127  164.7526 C.3     1  UNL1        0.0310
      3 C         141.4038  143.3938  165.1780 C.3     1  UNL1        0.0194
      4 C         142.4545  143.8172  164.1947 C.3     1  UNL1        0.0700
      5 C         142.0690  144.1596  162.7861 C.3     1  UNL1        0.0194
      6 C         140.6328  144.0785  162.3607 C.3     1  UNL1        0.0310
      7 C         141.6806  143.7877  163.9152 C.3     1  UNL1        0.1563
      8 O         140.3820  143.7144  163.5306 O.3     1  UNL1       -0.3548
      9 C         138.1461  143.5740  162.9186 C.3     1  UNL1        0.1396
     10 O         137.4065  144.8208  162.5333 O.3     1  UNL1       -0.3817
     11 H         136.4964  144.5936  162.2864 H       1  UNL1        0.2105
     12 C         137.4495  142.2461  162.8786 C.3     1  UNL1        0.0619
     13 C         138.6408  138.8793  165.6163 C.ar    1  UNL1        0.2250
     14 C         139.3482  137.6777  165.0635 C.ar    1  UNL1        0.0593
     15 C         139.6585  137.5983  163.5981 C.ar    1  UNL1        0.0254
     16 C         139.2614  138.7205  162.6855 C.ar    1  UNL1        0.0990
     17 N         139.5717  138.6412  161.2201 N.ar    1  UNL1       -0.2400
     18 C         139.1746  139.7634  160.3075 C.ar    1  UNL1        0.1281
     19 C         138.4672  140.9651  160.8603 C.ar    1  UNL1        0.1567
     20 F         138.0701  142.0873  159.9478 F       1  UNL1       -0.2028
     21 C         138.1569  141.0445  162.3257 C.ar    1  UNL1        0.0285
     22 C         138.5540  139.9222  163.2383 C.ar    1  UNL1        0.1002
     23 N         138.2437  140.0016  164.7037 N.ar    1  UNL1       -0.2104
     24 C         139.1815  139.8023  167.9840 C.3     1  UNL1        0.2542
     25 O         138.3305  138.9587  167.0817 O.3     1  UNL1       -0.4561
     26 N         143.8906  143.8983  164.6201 N.3     1  UNL1       -0.2926
     27 H         143.8967  144.2837  165.5644 H       1  UNL1        0.1236
     28 C         144.7342  142.6584  164.6530 C.3     1  UNL1        0.1152
     29 C         144.2656  141.4138  163.9593 C.ar    1  UNL1        0.0765
     30 C         143.7666  140.2498  164.7632 C.ar    1  UNL1        0.0193
     31 C         143.2979  139.0051  164.0695 C.ar    1  UNL1        0.0411
     32 C         143.3283  138.9244  162.5720 C.ar    1  UNL1        0.1708
     33 C         143.8273  140.0884  161.7681 C.ar    1  UNL1        0.1682
     34 N         144.2959  141.3331  162.4618 N.ar    1  UNL1       -0.2304
     35 N         143.8576  140.0077  160.2706 N.am    1  UNL1       -0.2639
     36 C         143.3890  138.7630  159.5770 C.2     1  UNL1        0.2718
     37 O         143.4193  138.6823  158.0794 O.2     1  UNL1       -0.2707
     38 C         142.8900  137.5990  160.3808 C.3     1  UNL1        0.2898
     39 O         142.8596  137.6797  161.8783 O.3     1  UNL1       -0.4628
     40 H         144.1851  140.7716  159.7430 H       1  UNL1        0.1565
@<TRIPOS>BOND
     1    24    25    1
     2    25    13    1
     3    13    14   ar
     4    14    15   ar
     5    15    16   ar
     6    16    17   ar
     7    17    18   ar
     8    18    19   ar
     9    19    20    1
    10    19    21   ar
    11    21    12    1
    12    12     9    1
    13     9    10    1
    14     9     1    1
    15     1     2    1
    16     2     3    1
    17     3     4    1
    18     4    26    1
    19    26    28    1
    20    28    29    1
    21    29    30   ar
    22    30    31   ar
    23    31    32   ar
    24    32    33   ar
    25    33    34   ar
    26    33    35    1
    27    35    36   am
    28    36    37    2
    29    36    38    1
    30    38    39    1
    31     4     5    1
    32     5     6    1
    33     4     7    1
    34     7     8    1
    35    21    22   ar
    36    22    23   ar
    37    23    13   ar
    38    22    16   ar
    39     6     1    1
    40     8     1    1
    41    34    29   ar
    42    39    32    1
    43    10    11    1
    44    26    27    1
    45    35    40    1
@<TRIPOS>MOLECULE
*****
 40 45 0 0 0
SMALL
GASTEIGER

@<TRIPOS>ATOM
      1 C         143.2317  143.8327  164.5232 C.3     1  UNL1        0.1177
      2 C         142.9856  144.7040  163.3273 C.3     1  UNL1        0.0310
      3 C         141.5821  145.0545  162.9308 C.3     1  UNL1        0.0194
      4 C         140.4246  144.5338  163.7303 C.3     1  UNL1        0.0700
      5 C         140.6707  143.6625  164.9263 C.3     1  UNL1        0.0194
      6 C         142.0743  143.3120  165.3227 C.3     1  UNL1        0.0310
      7 C         141.1759  144.3147  163.9863 C.3     1  UNL1        0.1563
      8 O         142.4450  143.9977  164.3448 O.3     1  UNL1       -0.3548
      9 C         144.6352  143.4821  164.9196 C.3     1  UNL1        0.1396
     10 O         145.3246  144.2579  166.0026 O.3     1  UNL1       -0.3817
     11 H         146.2187  143.9052  166.1340 H       1  UNL1        0.2105
     12 C         145.3494  142.3557  164.2331 C.3     1  UNL1        0.0619
     13 C         143.1509  138.9422  166.1732 C.ar    1  UNL1        0.2250
     14 C         142.3813  137.9697  165.3295 C.ar    1  UNL1        0.0593
     15 C         142.3445  138.1350  163.8391 C.ar    1  UNL1        0.0254
     16 C         143.0773  139.2728  163.1924 C.ar    1  UNL1        0.0990
     17 N         143.0405  139.4381  161.7020 N.ar    1  UNL1       -0.2400
     18 C         143.7733  140.5760  161.0552 C.ar    1  UNL1        0.1281
     19 C         144.5430  141.5486  161.8990 C.ar    1  UNL1        0.1567
     20 F         145.2758  142.6864  161.2522 F       1  UNL1       -0.2028
     21 C         144.5798  141.3832  163.3894 C.ar    1  UNL1        0.0285
     22 C         143.8469  140.2453  164.0361 C.ar    1  UNL1        0.1002
     23 N         143.8837  140.0800  165.5265 N.ar    1  UNL1       -0.2104
     24 C         142.3227  139.6380  168.5353 C.3     1  UNL1        0.2542
     25 O         143.1877  138.7768  167.6636 O.3     1  UNL1       -0.4561
     26 N         139.0211  144.8844  163.3339 N.3     1  UNL1       -0.2926
     27 H         139.0861  145.6632  162.6784 H       1  UNL1        0.1236
     28 C         138.1425  143.8512  162.6930 C.3     1  UNL1        0.1152
     29 C         138.3524  142.3969  162.9943 C.ar    1  UNL1        0.0765
     30 C         138.9780  141.5007  161.9668 C.ar    1  UNL1        0.0193
     31 C         139.1879  140.0464  162.2682 C.ar    1  UNL1        0.0411
     32 C         138.7722  139.4882  163.5969 C.ar    1  UNL1        0.1708
     33 C         138.1467  140.3842  164.6244 C.ar    1  UNL1        0.1682
     34 N         137.9368  141.8387  164.3231 N.ar    1  UNL1       -0.2304
     35 N         137.7311  139.8260  165.9531 N.am    1  UNL1       -0.2639
     36 C         137.9410  138.3717  166.2544 C.2     1  UNL1        0.2718
     37 O         137.5254  137.8134  167.5832 O.2     1  UNL1       -0.2707
     38 C         138.5666  137.4755  165.2270 C.3     1  UNL1        0.2898
     39 O         138.9822  138.0338  163.8982 O.3     1  UNL1       -0.4628
     40 H         137.3205  140.4141  166.6275 H       1  UNL1        0.1565
@<TRIPOS>BOND
     1    24    25    1
     2    25    13    1
     3    13    14   ar
     4    14    15   ar
     5    15    16   ar
     6    16    17   ar
     7    17    18   ar
     8    18    19   ar
     9    19    20    1
    10    19    21   ar
    11    21    12    1
    12    12     9    1
    13     9    10    1
    14     9     1    1
    15     1     2    1
    16     2     3    1
    17     3     4    1
    18     4    26    1
    19    26    28    1
    20    28    29    1
    21    29    30   ar
    22    30    31   ar
    23    31    32   ar
    24    32    33   ar
    25    33    34   ar
    26    33    35    1
    27    35    36   am
    28    36    37    2
    29    36    38    1
    30    38    39    1
    31     4     5    1
    32     5     6    1
    33     4     7    1
    34     7     8    1
    35    21    22   ar
    36    22    23   ar
    37    23    13   ar
    38    22    16   ar
    39     6     1    1
    40     8     1    1
    41    34    29   ar
    42    39    32    1
    43    10    11    1
    44    26    27    1
    45    35    40    1
