@<TRIPOS>MOLECULE
*****
 21 21 0 0 0
SMALL
GASTEIGER

@<TRIPOS>ATOM
      1 C         137.7485  140.4523  163.1709 C.ar    1  UNL1        0.1382
      2 C         138.1768  139.2762  162.3443 C.ar    1  UNL1        0.0369
      3 C         138.7262  138.0504  163.0118 C.ar    1  UNL1        0.0028
      4 C         138.8474  138.0007  164.5061 C.ar    1  UNL1       -0.0040
      5 C         138.4191  139.1768  165.3327 C.ar    1  UNL1       -0.0178
      6 C         137.8697  140.4026  164.6652 C.ar    1  UNL1        0.0327
      7 O         137.1991  141.6780  162.5034 O.3     1  UNL1       -0.4755
      8 C         138.0469  142.9095  162.3816 C.3     1  UNL1        0.2054
      9 C         137.6888  144.1457  163.1520 C.3     1  UNL1        0.0473
     10 C         138.8154  144.8759  165.3764 C.3     1  UNL1        0.0001
     11 C         137.7321  144.1338  164.6514 C.3     1  UNL1        0.0038
     12 C         138.5403  139.1272  166.8271 C.3     1  UNL1        0.0435
     13 C         139.6776  139.8263  167.5109 C.3     1  UNL1        0.0737
     14 N         139.4971  140.3752  168.8952 N.3     1  UNL1       -0.2895
     15 H         138.6141  140.0043  169.2462 H       1  UNL1        0.1237
     16 C         140.5295  140.1057  169.9495 C.3     1  UNL1        0.1552
     17 C         141.9629  140.4752  169.7072 C.2     1  UNL1        0.2419
     18 O         142.9508  139.4217  169.3022 O.2     1  UNL1       -0.2734
     19 N         142.4084  141.8983  169.8701 N.am    1  UNL1       -0.2749
     20 C         143.8418  142.2678  169.6278 C.3     1  UNL1        0.1149
     21 C         141.4205  142.9518  170.2751 C.3     1  UNL1        0.1149
@<TRIPOS>BOND
     1    10    11    1
     2    11     9    1
     3     9     8    1
     4     8     7    1
     5     7     1    1
     6     1     2   ar
     7     2     3   ar
     8     3     4   ar
     9     4     5   ar
    10     5    12    1
    11    12    13    1
    12    13    14    1
    13    14    16    1
    14    16    17    1
    15    17    18    2
    16    17    19   am
    17    19    20    1
    18    19    21    1
    19     5     6   ar
    20     6     1   ar
    21    14    15    1
@<TRIPOS>MOLECULE
*****
 21 21 0 0 0
SMALL
GASTEIGER

@<TRIPOS>ATOM
      1 C         137.7482  140.6737  162.5191 C.ar    1  UNL1        0.1382
      2 C         137.7969  139.6929  161.3853 C.ar    1  UNL1        0.0369
      3 C         138.2254  138.2775  161.6358 C.ar    1  UNL1        0.0028
      4 C         138.6053  137.8427  163.0202 C.ar    1  UNL1       -0.0040
      5 C         138.5566  138.8235  164.1541 C.ar    1  UNL1       -0.0178
      6 C         138.1281  140.2390  163.9036 C.ar    1  UNL1        0.0327
      7 O         137.3197  142.0892  162.2686 O.3     1  UNL1       -0.4755
      8 C         138.1241  143.2261  162.8257 C.3     1  UNL1        0.2054
      9 C         137.6217  143.9877  164.0162 C.3     1  UNL1        0.0473
     10 C         139.6837  143.5826  165.5441 C.3     1  UNL1        0.0001
     11 C         138.5870  144.4806  165.0532 C.3     1  UNL1        0.0038
     12 C         138.9365  138.3888  165.5386 C.3     1  UNL1        0.0435
     13 C         137.9252  138.4412  166.6451 C.3     1  UNL1        0.0737
     14 N         138.2744  139.0932  167.9502 N.3     1  UNL1       -0.2895
     15 H         138.4834  138.3422  168.6079 H       1  UNL1        0.1237
     16 C         139.4169  140.0625  168.0223 C.3     1  UNL1        0.1552
     17 C         139.9345  140.5137  169.3558 C.2     1  UNL1        0.2419
     18 O         139.0098  141.1741  170.3349 O.2     1  UNL1       -0.2734
     19 N         141.3770  140.3045  169.7103 N.am    1  UNL1       -0.2749
     20 C         141.8946  140.7557  171.0438 C.3     1  UNL1        0.1149
     21 C         142.3017  139.6440  168.7312 C.3     1  UNL1        0.1149
@<TRIPOS>BOND
     1    10    11    1
     2    11     9    1
     3     9     8    1
     4     8     7    1
     5     7     1    1
     6     1     2   ar
     7     2     3   ar
     8     3     4   ar
     9     4     5   ar
    10     5    12    1
    11    12    13    1
    12    13    14    1
    13    14    16    1
    14    16    17    1
    15    17    18    2
    16    17    19   am
    17    19    20    1
    18    19    21    1
    19     5     6   ar
    20     6     1   ar
    21    14    15    1
@<TRIPOS>MOLECULE
*****
 21 21 0 0 0
SMALL
GASTEIGER

@<TRIPOS>ATOM
      1 C         137.8690  140.1864  163.1488 C.ar    1  UNL1        0.1382
      2 C         138.2344  138.9149  162.4420 C.ar    1  UNL1        0.0369
      3 C         138.7558  137.7456  163.2235 C.ar    1  UNL1        0.0028
      4 C         138.9119  137.8478  164.7118 C.ar    1  UNL1       -0.0040
      5 C         138.5465  139.1193  165.4186 C.ar    1  UNL1       -0.0178
      6 C         138.0251  140.2887  164.6371 C.ar    1  UNL1        0.0327
      7 O         137.3476  141.3558  162.3673 O.3     1  UNL1       -0.4755
      8 C         138.1244  142.6383  162.3285 C.3     1  UNL1        0.2054
      9 C         137.6525  143.8251  163.1152 C.3     1  UNL1        0.0473
     10 C         138.7891  144.8785  165.2006 C.3     1  UNL1        0.0001
     11 C         137.8557  143.8690  164.6008 C.3     1  UNL1        0.0038
     12 C         138.7026  139.2216  166.9070 C.3     1  UNL1        0.0435
     13 C         139.6312  140.2421  167.4954 C.3     1  UNL1        0.0737
     14 N         141.0493  139.8707  167.8135 N.3     1  UNL1       -0.2895
     15 H         141.0744  138.8551  167.9046 H       1  UNL1        0.1237
     16 C         142.1531  140.2482  166.8705 C.3     1  UNL1        0.1552
     17 C         142.1599  139.7104  165.4703 C.2     1  UNL1        0.2419
     18 O         142.5915  138.2973  165.2117 O.2     1  UNL1       -0.2734
     19 N         141.7351  140.5857  164.3286 N.am    1  UNL1       -0.2749
     20 C         141.7420  140.0479  162.9284 C.3     1  UNL1        0.1149
     21 C         141.3035  141.9988  164.5872 C.3     1  UNL1        0.1149
@<TRIPOS>BOND
     1    10    11    1
     2    11     9    1
     3     9     8    1
     4     8     7    1
     5     7     1    1
     6     1     2   ar
     7     2     3   ar
     8     3     4   ar
     9     4     5   ar
    10     5    12    1
    11    12    13    1
    12    13    14    1
    13    14    16    1
    14    16    17    1
    15    17    18    2
    16    17    19   am
    17    19    20    1
    18    19    21    1
    19     5     6   ar
    20     6     1   ar
    21    14    15    1
@<TRIPOS>MOLECULE
*****
 21 21 0 0 0
SMALL
GASTEIGER

@<TRIPOS>ATOM
      1 C         138.7668  139.1104  165.8052 C.ar    1  UNL1        0.1382
      2 C         139.1979  137.8426  165.1294 C.ar    1  UNL1        0.0369
      3 C         139.0188  137.6838  163.6486 C.ar    1  UNL1        0.0028
      4 C         138.4087  138.7927  162.8437 C.ar    1  UNL1       -0.0040
      5 C         137.9776  140.0605  163.5195 C.ar    1  UNL1       -0.0178
      6 C         138.1567  140.2194  165.0003 C.ar    1  UNL1        0.0327
      7 O         138.9459  139.2693  167.2860 O.3     1  UNL1       -0.4755
      8 C         139.9593  140.2381  167.8193 C.3     1  UNL1        0.2054
      9 C         141.2413  140.4679  167.0751 C.3     1  UNL1        0.0473
     10 C         142.7486  138.6675  165.9631 C.3     1  UNL1        0.0001
     11 C         142.3535  139.4658  167.1700 C.3     1  UNL1        0.0038
     12 C         137.3674  141.1695  162.7146 C.3     1  UNL1        0.0435
     13 C         138.2432  142.2251  162.1074 C.3     1  UNL1        0.0737
     14 N         137.7566  143.6410  162.0142 N.3     1  UNL1       -0.2895
     15 H         136.7382  143.6058  162.0579 H       1  UNL1        0.1237
     16 C         138.1988  144.6542  163.0280 C.3     1  UNL1        0.1552
     17 C         139.5758  145.2435  162.9480 C.2     1  UNL1        0.2419
     18 O         139.8665  146.3402  161.9668 O.2     1  UNL1       -0.2734
     19 N         140.6623  144.7361  163.8493 N.am    1  UNL1       -0.2749
     20 C         142.0393  145.3254  163.7694 C.3     1  UNL1        0.1149
     21 C         140.3716  143.6395  164.8305 C.3     1  UNL1        0.1149
@<TRIPOS>BOND
     1    10    11    1
     2    11     9    1
     3     9     8    1
     4     8     7    1
     5     7     1    1
     6     1     2   ar
     7     2     3   ar
     8     3     4   ar
     9     4     5   ar
    10     5    12    1
    11    12    13    1
    12    13    14    1
    13    14    16    1
    14    16    17    1
    15    17    18    2
    16    17    19   am
    17    19    20    1
    18    19    21    1
    19     5     6   ar
    20     6     1   ar
    21    14    15    1
@<TRIPOS>MOLECULE
*****
 21 21 0 0 0
SMALL
GASTEIGER

@<TRIPOS>ATOM
      1 C         140.0356  140.6460  166.9372 C.ar    1  UNL1        0.1382
      2 C         139.1356  139.9195  167.8922 C.ar    1  UNL1        0.0369
      3 C         138.0895  138.9800  167.3697 C.ar    1  UNL1        0.0028
      4 C         137.9435  138.7669  165.8922 C.ar    1  UNL1       -0.0040
      5 C         138.8435  139.4933  164.9371 C.ar    1  UNL1       -0.0178
      6 C         139.8896  140.4329  165.4596 C.ar    1  UNL1        0.0327
      7 O         141.0816  141.5855  167.4597 O.3     1  UNL1       -0.4755
      8 C         142.3650  141.0444  168.0165 C.3     1  UNL1        0.2054
      9 C         142.6609  139.5765  167.9284 C.3     1  UNL1        0.0473
     10 C         144.0494  137.8070  166.6280 C.3     1  UNL1        0.0001
     11 C         143.1137  138.9794  166.6290 C.3     1  UNL1        0.0038
     12 C         138.6975  139.2803  163.4595 C.3     1  UNL1        0.0435
     13 C         137.9258  140.2652  162.6323 C.3     1  UNL1        0.0737
     14 N         136.9509  141.1962  163.2904 N.3     1  UNL1       -0.2895
     15 H         136.5989  140.7165  164.1188 H       1  UNL1        0.1237
     16 C         137.3971  142.5575  163.7352 C.3     1  UNL1        0.1552
     17 C         138.0396  143.4935  162.7549 C.2     1  UNL1        0.2419
     18 O         137.8363  143.2929  161.2824 O.2     1  UNL1       -0.2734
     19 N         138.8856  144.6303  163.2473 N.am    1  UNL1       -0.2749
     20 C         139.5281  145.5663  162.2670 C.3     1  UNL1        0.1149
     21 C         139.0889  144.8309  164.7198 C.3     1  UNL1        0.1149
@<TRIPOS>BOND
     1    10    11    1
     2    11     9    1
     3     9     8    1
     4     8     7    1
     5     7     1    1
     6     1     2   ar
     7     2     3   ar
     8     3     4   ar
     9     4     5   ar
    10     5    12    1
    11    12    13    1
    12    13    14    1
    13    14    16    1
    14    16    17    1
    15    17    18    2
    16    17    19   am
    17    19    20    1
    18    19    21    1
    19     5     6   ar
    20     6     1   ar
    21    14    15    1
@<TRIPOS>MOLECULE
*****
 21 21 0 0 0
SMALL
GASTEIGER

@<TRIPOS>ATOM
      1 C         140.3993  142.0444  168.7329 C.ar    1  UNL1        0.1382
      2 C         139.6322  140.9161  169.3560 C.ar    1  UNL1        0.0369
      3 C         139.0046  139.8662  168.4878 C.ar    1  UNL1        0.0028
      4 C         139.1441  139.9446  166.9964 C.ar    1  UNL1       -0.0040
      5 C         139.9112  141.0730  166.3732 C.ar    1  UNL1       -0.0178
      6 C         140.5388  142.1228  167.2414 C.ar    1  UNL1        0.0327
      7 O         141.0270  143.0943  169.6011 O.3     1  UNL1       -0.4755
      8 C         142.3151  142.8065  170.3136 C.3     1  UNL1        0.2054
      9 C         143.1939  141.6828  169.8499 C.3     1  UNL1        0.0473
     10 C         142.6413  139.1581  169.5847 C.3     1  UNL1        0.0001
     11 C         143.0428  140.3161  170.4494 C.3     1  UNL1        0.0038
     12 C         140.0507  141.1514  164.8817 C.3     1  UNL1        0.0435
     13 C         139.0351  140.4905  163.9976 C.3     1  UNL1        0.0737
     14 N         137.6284  141.0096  163.9530 N.3     1  UNL1       -0.2895
     15 H         137.1412  140.6089  164.7545 H       1  UNL1        0.1237
     16 C         137.3729  142.4873  163.9855 C.3     1  UNL1        0.1552
     17 C         137.9600  143.3733  162.9270 C.2     1  UNL1        0.2419
     18 O         137.6918  143.0904  161.4786 O.2     1  UNL1       -0.2734
     19 N         138.8152  144.5423  163.3171 N.am    1  UNL1       -0.2749
     20 C         139.4023  145.4283  162.2586 C.3     1  UNL1        0.1149
     21 C         139.0834  144.8252  164.7655 C.3     1  UNL1        0.1149
@<TRIPOS>BOND
     1    10    11    1
     2    11     9    1
     3     9     8    1
     4     8     7    1
     5     7     1    1
     6     1     2   ar
     7     2     3   ar
     8     3     4   ar
     9     4     5   ar
    10     5    12    1
    11    12    13    1
    12    13    14    1
    13    14    16    1
    14    16    17    1
    15    17    18    2
    16    17    19   am
    17    19    20    1
    18    19    21    1
    19     5     6   ar
    20     6     1   ar
    21    14    15    1
@<TRIPOS>MOLECULE
*****
 21 21 0 0 0
SMALL
GASTEIGER

@<TRIPOS>ATOM
      1 C         139.8212  138.1210  163.2909 C.ar    1  UNL1        0.1382
      2 C         139.8195  137.7622  164.7473 C.ar    1  UNL1        0.0369
      3 C         139.0091  138.5695  165.7177 C.ar    1  UNL1        0.0028
      4 C         138.2005  139.7356  165.2316 C.ar    1  UNL1       -0.0040
      5 C         138.2023  140.0945  163.7752 C.ar    1  UNL1       -0.0178
      6 C         139.0126  139.2872  162.8049 C.ar    1  UNL1        0.0327
      7 O         140.6316  137.3137  162.3206 O.3     1  UNL1       -0.4755
      8 C         141.9712  137.8120  161.8654 C.3     1  UNL1        0.2054
      9 C         142.9989  138.2292  162.8752 C.3     1  UNL1        0.0473
     10 C         144.5510  140.1159  163.7594 C.3     1  UNL1        0.0001
     11 C         143.2666  139.6856  163.1150 C.3     1  UNL1        0.0038
     12 C         137.3937  141.2606  163.2891 C.3     1  UNL1        0.0435
     13 C         137.7641  141.9484  162.0086 C.3     1  UNL1        0.0737
     14 N         137.6013  143.4341  161.8809 N.3     1  UNL1       -0.2895
     15 H         136.6264  143.6033  161.6334 H       1  UNL1        0.1237
     16 C         137.9132  144.3257  163.0462 C.3     1  UNL1        0.1552
     17 C         139.3057  144.3744  163.6015 C.2     1  UNL1        0.2419
     18 O         139.6858  143.4902  164.7521 O.2     1  UNL1       -0.2734
     19 N         140.3183  145.3074  163.0062 N.am    1  UNL1       -0.2749
     20 C         141.7109  145.3562  163.5616 C.3     1  UNL1        0.1149
     21 C         139.9383  146.1916  161.8557 C.3     1  UNL1        0.1149
@<TRIPOS>BOND
     1    10    11    1
     2    11     9    1
     3     9     8    1
     4     8     7    1
     5     7     1    1
     6     1     2   ar
     7     2     3   ar
     8     3     4   ar
     9     4     5   ar
    10     5    12    1
    11    12    13    1
    12    13    14    1
    13    14    16    1
    14    16    17    1
    15    17    18    2
    16    17    19   am
    17    19    20    1
    18    19    21    1
    19     5     6   ar
    20     6     1   ar
    21    14    15    1
@<TRIPOS>MOLECULE
*****
 21 21 0 0 0
SMALL
GASTEIGER

@<TRIPOS>ATOM
      1 C         142.8849  140.1949  165.8431 C.ar    1  UNL1        0.1382
      2 C         143.8314  139.1922  165.2527 C.ar    1  UNL1        0.0369
      3 C         144.9460  139.6488  164.3588 C.ar    1  UNL1        0.0028
      4 C         145.1142  141.1080  164.0554 C.ar    1  UNL1       -0.0040
      5 C         144.1677  142.1108  164.6458 C.ar    1  UNL1       -0.0178
      6 C         143.0530  141.6542  165.5397 C.ar    1  UNL1        0.0327
      7 O         141.7702  139.7383  166.7370 O.3     1  UNL1       -0.4755
      8 C         140.3673  140.2056  166.4849 C.3     1  UNL1        0.2054
      9 C         139.5459  139.5649  165.4056 C.3     1  UNL1        0.0473
     10 C         137.7422  138.5553  166.9795 C.3     1  UNL1        0.0001
     11 C         138.5907  138.4597  165.7463 C.3     1  UNL1        0.0038
     12 C         144.3359  143.5701  164.3423 C.3     1  UNL1        0.0435
     13 C         144.1337  144.0735  162.9439 C.3     1  UNL1        0.0737
     14 N         143.1436  145.1683  162.6766 N.3     1  UNL1       -0.2895
     15 H         142.7932  145.0236  161.7297 H       1  UNL1        0.1237
     16 C         141.9439  145.3272  163.5627 C.3     1  UNL1        0.1552
     17 C         140.5648  145.2681  162.9757 C.2     1  UNL1        0.2419
     18 O         140.2621  145.9925  161.6975 O.2     1  UNL1       -0.2734
     19 N         139.4884  144.4846  163.6667 N.am    1  UNL1       -0.2749
     20 C         138.1094  144.4255  163.0797 C.3     1  UNL1        0.1149
     21 C         139.7911  143.7602  164.9448 C.3     1  UNL1        0.1149
@<TRIPOS>BOND
     1    10    11    1
     2    11     9    1
     3     9     8    1
     4     8     7    1
     5     7     1    1
     6     1     2   ar
     7     2     3   ar
     8     3     4   ar
     9     4     5   ar
    10     5    12    1
    11    12    13    1
    12    13    14    1
    13    14    16    1
    14    16    17    1
    15    17    18    2
    16    17    19   am
    17    19    20    1
    18    19    21    1
    19     5     6   ar
    20     6     1   ar
    21    14    15    1
@<TRIPOS>MOLECULE
*****
 21 21 0 0 0
SMALL
GASTEIGER

@<TRIPOS>ATOM
      1 C         142.7880  143.4006  164.7716 C.ar    1  UNL1        0.1382
      2 C         142.7623  142.4538  165.9348 C.ar    1  UNL1        0.0369
      3 C         141.4721  142.1770  166.6481 C.ar    1  UNL1        0.0028
      4 C         140.2077  142.8468  166.1982 C.ar    1  UNL1       -0.0040
      5 C         140.2334  143.7935  165.0350 C.ar    1  UNL1       -0.0178
      6 C         141.5236  144.0704  164.3217 C.ar    1  UNL1        0.0327
      7 O         144.0782  143.6774  164.0584 O.3     1  UNL1       -0.4755
      8 C         144.6481  142.6587  163.1165 C.3     1  UNL1        0.2054
      9 C         145.6863  141.6893  163.5987 C.3     1  UNL1        0.0473
     10 C         143.9901  139.7220  163.6515 C.3     1  UNL1        0.0001
     11 C         145.2727  140.3442  164.1182 C.3     1  UNL1        0.0038
     12 C         138.9689  144.4634  164.5850 C.3     1  UNL1        0.0435
     13 C         138.7243  144.6999  163.1242 C.3     1  UNL1        0.0737
     14 N         137.6561  143.9278  162.4079 N.3     1  UNL1       -0.2895
     15 H         137.1855  144.5845  161.7853 H       1  UNL1        0.1237
     16 C         138.0224  142.7323  161.5794 C.3     1  UNL1        0.1552
     17 C         137.8620  141.3516  162.1432 C.2     1  UNL1        0.2419
     18 O         137.6686  141.1616  163.6184 O.2     1  UNL1       -0.2734
     19 N         137.8951  140.1607  161.2316 N.am    1  UNL1       -0.2749
     20 C         137.7346  138.7800  161.7953 C.3     1  UNL1        0.1149
     21 C         138.0885  140.3507  159.7563 C.3     1  UNL1        0.1149
@<TRIPOS>BOND
     1    10    11    1
     2    11     9    1
     3     9     8    1
     4     8     7    1
     5     7     1    1
     6     1     2   ar
     7     2     3   ar
     8     3     4   ar
     9     4     5   ar
    10     5    12    1
    11    12    13    1
    12    13    14    1
    13    14    16    1
    14    16    17    1
    15    17    18    2
    16    17    19   am
    17    19    20    1
    18    19    21    1
    19     5     6   ar
    20     6     1   ar
    21    14    15    1
