@<TRIPOS>MOLECULE
*****
 31 35 0 0 0
SMALL
GASTEIGER

@<TRIPOS>ATOM
      1 C         138.4217  141.3253  163.4574 C.ar    1  UNL1        0.1873
      2 N         137.7635  142.6600  163.2694 N.ar    1  UNL1       -0.1273
      3 N         137.7661  142.9756  161.8030 N.ar    1  UNL1       -0.1316
      4 C         138.4259  141.8360  161.0847 C.ar    1  UNL1        0.1615
      5 N         138.8311  140.8160  162.1072 N.ar    1  UNL1       -0.2944
      6 C         139.5205  139.5554  161.6766 C.3     1  UNL1        0.1302
      7 C         139.8047  139.3146  160.2236 C.3     1  UNL1        0.1186
      8 N         139.3995  140.3346  159.2011 N.am    1  UNL1       -0.2688
      9 C         139.6837  140.0939  157.7481 C.2     1  UNL1        0.2493
     10 O         139.2785  141.1139  156.7256 O.2     1  UNL1       -0.2699
     11 C         138.7101  141.5953  159.6317 C.3     1  UNL1        0.1343
     12 C         138.3048  142.6153  158.6092 C.3     1  UNL1        0.0298
     13 C         140.3731  138.8332  157.3175 C.ar    1  UNL1        0.0536
     14 C         141.7875  138.5695  157.7416 C.ar    1  UNL1        0.0045
     15 C         142.4769  137.3088  157.3110 C.ar    1  UNL1        0.0006
     16 C         141.7519  136.3118  156.4564 C.ar    1  UNL1        0.0060
     17 C         140.3374  136.5755  156.0324 C.ar    1  UNL1        0.0006
     18 C         139.6480  137.8362  156.4629 C.ar    1  UNL1        0.0045
     19 C         142.4413  135.0511  156.0259 C.ar    1  UNL1        0.0295
     20 C         142.1386  134.2591  154.7885 C.ar    1  UNL1        0.0070
     21 C         143.0646  133.0796  154.7550 C.ar    1  UNL1        0.0075
     22 C         143.9397  133.1425  155.9717 C.ar    1  UNL1        0.0354
     23 S         143.5544  134.3611  156.7572 S.2     1  UNL1       -0.0864
     24 C         139.3691  140.1211  167.0236 C.ar    1  UNL1        0.2054
     25 N         139.4211  141.1466  165.9301 N.ar    1  UNL1       -0.2088
     26 C         138.6334  140.6231  164.7658 C.ar    1  UNL1        0.1573
     27 C         138.0946  139.2741  165.1397 C.ar    1  UNL1        0.2033
     28 O         138.5493  138.9638  166.5351 O.2     1  UNL1       -0.4352
     29 C         141.5153  140.1499  168.4876 C.3     1  UNL1        0.0097
     30 C         140.0222  140.2332  168.3692 C.3     1  UNL1        0.0766
     31 C         139.1824  140.4287  169.5966 C.3     1  UNL1        0.0097
@<TRIPOS>BOND
     1    29    30    1
     2    30    31    1
     3    30    24    1
     4    24    25   ar
     5    25    26   ar
     6    26     1    1
     7     1     2   ar
     8     2     3   ar
     9     3     4   ar
    10     4     5   ar
    11     5     6    1
    12     6     7    1
    13     7     8    1
    14     8     9   am
    15     9    10    2
    16     9    13    1
    17    13    14   ar
    18    14    15   ar
    19    15    16   ar
    20    16    19    1
    21    19    20   ar
    22    20    21   ar
    23    21    22   ar
    24    22    23   ar
    25    16    17   ar
    26    17    18   ar
    27     8    11    1
    28    11    12    1
    29    26    27   ar
    30    27    28   ar
    31    28    24   ar
    32     5     1   ar
    33    18    13   ar
    34    11     4    1
    35    23    19   ar
@<TRIPOS>MOLECULE
*****
 31 35 0 0 0
SMALL
GASTEIGER

@<TRIPOS>ATOM
      1 C         142.9734  143.4304  158.3715 C.ar    1  UNL1        0.1873
      2 N         142.2560  144.5471  157.6727 N.ar    1  UNL1       -0.1273
      3 N         141.3954  145.2482  158.6816 N.ar    1  UNL1       -0.1316
      4 C         141.5810  144.5648  160.0039 C.ar    1  UNL1        0.1615
      5 N         142.5562  143.4413  159.8123 N.ar    1  UNL1       -0.2944
      6 C         142.9384  142.5735  160.9744 C.3     1  UNL1        0.1302
      7 C         142.3454  142.8290  162.3284 C.3     1  UNL1        0.1186
      8 N         141.3701  143.9524  162.5200 N.am    1  UNL1       -0.2688
      9 C         140.7770  144.2080  163.8739 C.2     1  UNL1        0.2493
     10 O         139.8017  145.3314  164.0655 O.2     1  UNL1       -0.2699
     11 C         140.9879  144.8203  161.3578 C.3     1  UNL1        0.1343
     12 C         140.0126  145.9438  161.5494 C.3     1  UNL1        0.0298
     13 C         141.1592  143.3401  165.0360 C.ar    1  UNL1        0.0536
     14 C         142.6052  143.1510  165.3873 C.ar    1  UNL1        0.0045
     15 C         142.9873  142.2830  166.5495 C.ar    1  UNL1        0.0006
     16 C         141.9236  141.6043  167.3604 C.ar    1  UNL1        0.0060
     17 C         140.4776  141.7934  167.0091 C.ar    1  UNL1        0.0006
     18 C         140.0954  142.6613  165.8470 C.ar    1  UNL1        0.0045
     19 C         142.3057  140.7363  168.5226 C.ar    1  UNL1        0.0295
     20 C         142.2269  139.2391  168.5684 C.ar    1  UNL1        0.0070
     21 C         142.7063  138.7907  169.9172 C.ar    1  UNL1        0.0075
     22 C         143.0814  140.0109  170.7050 C.ar    1  UNL1        0.0354
     23 S         142.8338  141.2134  169.8431 S.2     1  UNL1       -0.0864
     24 C         145.6689  141.5400  156.3156 C.ar    1  UNL1        0.2054
     25 N         144.9023  142.7890  156.6357 N.ar    1  UNL1       -0.2088
     26 C         143.9386  142.4712  157.7403 C.ar    1  UNL1        0.1573
     27 C         144.1094  141.0258  158.1030 C.ar    1  UNL1        0.2033
     28 O         145.1788  140.4502  157.2225 O.2     1  UNL1       -0.4352
     29 C         148.1635  141.7221  155.6131 C.3     1  UNL1        0.0097
     30 C         146.7377  141.4045  155.2721 C.3     1  UNL1        0.0766
     31 C         146.3808  140.9513  153.8874 C.3     1  UNL1        0.0097
@<TRIPOS>BOND
     1    29    30    1
     2    30    31    1
     3    30    24    1
     4    24    25   ar
     5    25    26   ar
     6    26     1    1
     7     1     2   ar
     8     2     3   ar
     9     3     4   ar
    10     4     5   ar
    11     5     6    1
    12     6     7    1
    13     7     8    1
    14     8     9   am
    15     9    10    2
    16     9    13    1
    17    13    14   ar
    18    14    15   ar
    19    15    16   ar
    20    16    19    1
    21    19    20   ar
    22    20    21   ar
    23    21    22   ar
    24    22    23   ar
    25    16    17   ar
    26    17    18   ar
    27     8    11    1
    28    11    12    1
    29    26    27   ar
    30    27    28   ar
    31    28    24   ar
    32     5     1   ar
    33    18    13   ar
    34    11     4    1
    35    23    19   ar
@<TRIPOS>MOLECULE
*****
 31 35 0 0 0
SMALL
GASTEIGER

@<TRIPOS>ATOM
      1 C         138.5487  141.5908  161.1209 C.ar    1  UNL1        0.1873
      2 N         138.1462  142.9222  160.5593 N.ar    1  UNL1       -0.1273
      3 N         138.4636  142.9219  159.0932 N.ar    1  UNL1       -0.1316
      4 C         139.0622  141.5903  158.7488 C.ar    1  UNL1        0.1615
      5 N         139.1149  140.7677  160.0019 N.ar    1  UNL1       -0.2944
      6 C         139.6715  139.3753  159.9623 C.3     1  UNL1        0.1302
      7 C         140.1755  138.8056  158.6694 C.3     1  UNL1        0.1186
      8 N         140.1229  139.6283  157.4162 N.am    1  UNL1       -0.2688
      9 C         140.6268  139.0587  156.1234 C.2     1  UNL1        0.2493
     10 O         140.5742  139.8814  154.8702 O.2     1  UNL1       -0.2699
     11 C         139.5662  141.0207  157.4559 C.3     1  UNL1        0.1343
     12 C         139.5136  141.8434  156.2028 C.3     1  UNL1        0.0298
     13 C         141.1834  137.6664  156.0837 C.ar    1  UNL1        0.0536
     14 C         140.4321  136.5782  155.3756 C.ar    1  UNL1        0.0045
     15 C         140.9888  135.1858  155.3360 C.ar    1  UNL1        0.0006
     16 C         142.2967  134.8817  156.0044 C.ar    1  UNL1        0.0060
     17 C         143.0480  135.9699  156.7125 C.ar    1  UNL1        0.0006
     18 C         142.4914  137.3622  156.7521 C.ar    1  UNL1        0.0045
     19 C         142.8534  133.4893  155.9647 C.ar    1  UNL1        0.0295
     20 C         144.2810  133.1031  156.2149 C.ar    1  UNL1        0.0070
     21 C         144.3900  131.6138  156.0727 C.ar    1  UNL1        0.0075
     22 C         143.0297  131.0796  155.7347 C.ar    1  UNL1        0.0354
     23 S         142.0799  132.2388  155.6680 S.2     1  UNL1       -0.0864
     24 C         138.3601  139.7883  164.5533 C.ar    1  UNL1        0.2054
     25 N         138.5942  139.7641  163.0718 N.ar    1  UNL1       -0.2088
     26 C         138.4096  141.1584  162.5504 C.ar    1  UNL1        0.1573
     27 C         138.0613  142.0444  163.7096 C.ar    1  UNL1        0.2033
     28 O         138.0307  141.1977  164.9474 O.2     1  UNL1       -0.4352
     29 C         139.1732  137.3719  165.0530 C.3     1  UNL1        0.0097
     30 C         138.4411  138.6103  165.4781 C.3     1  UNL1        0.0766
     31 C         137.7900  138.6703  166.8281 C.3     1  UNL1        0.0097
@<TRIPOS>BOND
     1    29    30    1
     2    30    31    1
     3    30    24    1
     4    24    25   ar
     5    25    26   ar
     6    26     1    1
     7     1     2   ar
     8     2     3   ar
     9     3     4   ar
    10     4     5   ar
    11     5     6    1
    12     6     7    1
    13     7     8    1
    14     8     9   am
    15     9    10    2
    16     9    13    1
    17    13    14   ar
    18    14    15   ar
    19    15    16   ar
    20    16    19    1
    21    19    20   ar
    22    20    21   ar
    23    21    22   ar
    24    22    23   ar
    25    16    17   ar
    26    17    18   ar
    27     8    11    1
    28    11    12    1
    29    26    27   ar
    30    27    28   ar
    31    28    24   ar
    32     5     1   ar
    33    18    13   ar
    34    11     4    1
    35    23    19   ar
@<TRIPOS>MOLECULE
*****
 31 35 0 0 0
SMALL
GASTEIGER

@<TRIPOS>ATOM
      1 C         143.7599  140.5946  157.4371 C.ar    1  UNL1        0.1873
      2 N         142.8479  139.9596  156.4295 N.ar    1  UNL1       -0.1273
      3 N         141.6959  139.3462  157.1689 N.ar    1  UNL1       -0.1316
      4 C         141.8960  139.6020  158.6333 C.ar    1  UNL1        0.1615
      5 N         143.1716  140.3736  158.7991 N.ar    1  UNL1       -0.2944
      6 C         143.6326  140.7752  160.1687 C.3     1  UNL1        0.1302
      7 C         142.8180  140.4052  161.3728 C.3     1  UNL1        0.1186
      8 N         141.5424  139.6337  161.2070 N.am    1  UNL1       -0.2688
      9 C         140.7278  139.2637  162.4110 C.2     1  UNL1        0.2493
     10 O         139.4522  138.4922  162.2452 O.2     1  UNL1       -0.2699
     11 C         141.0814  139.2320  159.8373 C.3     1  UNL1        0.1343
     12 C         139.8058  138.4605  159.6715 C.3     1  UNL1        0.0298
     13 C         141.1888  139.6653  163.7807 C.ar    1  UNL1        0.0536
     14 C         142.0308  138.7272  164.5937 C.ar    1  UNL1        0.0045
     15 C         142.4918  139.1289  165.9635 C.ar    1  UNL1        0.0006
     16 C         142.1109  140.4686  166.5201 C.ar    1  UNL1        0.0060
     17 C         141.2689  141.4068  165.7071 C.ar    1  UNL1        0.0006
     18 C         140.8079  141.0051  164.3374 C.ar    1  UNL1        0.0045
     19 C         142.5719  140.8703  167.8899 C.ar    1  UNL1        0.0295
     20 C         143.1612  142.1968  168.2681 C.ar    1  UNL1        0.0070
     21 C         143.4781  142.1623  169.7338 C.ar    1  UNL1        0.0075
     22 C         143.0846  140.8144  170.2616 C.ar    1  UNL1        0.0354
     23 S         142.5245  140.0159  169.1218 S.2     1  UNL1       -0.0864
     24 C         147.0962  142.0215  156.0589 C.ar    1  UNL1        0.2054
     25 N         145.9416  141.0682  155.9670 N.ar    1  UNL1       -0.2088
     26 C         145.0362  141.3227  157.1355 C.ar    1  UNL1        0.1573
     27 C         145.6311  142.4333  157.9496 C.ar    1  UNL1        0.2033
     28 O         146.9042  142.8651  157.2843 O.2     1  UNL1       -0.4352
     29 C         148.0236  142.6834  153.7240 C.3     1  UNL1        0.0097
     30 C         148.2414  142.1146  155.0949 C.3     1  UNL1        0.0766
     31 C         149.6047  141.6390  155.5015 C.3     1  UNL1        0.0097
@<TRIPOS>BOND
     1    29    30    1
     2    30    31    1
     3    30    24    1
     4    24    25   ar
     5    25    26   ar
     6    26     1    1
     7     1     2   ar
     8     2     3   ar
     9     3     4   ar
    10     4     5   ar
    11     5     6    1
    12     6     7    1
    13     7     8    1
    14     8     9   am
    15     9    10    2
    16     9    13    1
    17    13    14   ar
    18    14    15   ar
    19    15    16   ar
    20    16    19    1
    21    19    20   ar
    22    20    21   ar
    23    21    22   ar
    24    22    23   ar
    25    16    17   ar
    26    17    18   ar
    27     8    11    1
    28    11    12    1
    29    26    27   ar
    30    27    28   ar
    31    28    24   ar
    32     5     1   ar
    33    18    13   ar
    34    11     4    1
    35    23    19   ar
@<TRIPOS>MOLECULE
*****
 31 35 0 0 0
SMALL
GASTEIGER

@<TRIPOS>ATOM
      1 C         143.0251  137.6372  156.2896 C.ar    1  UNL1        0.1873
      2 N         143.2556  138.4947  155.0806 N.ar    1  UNL1       -0.1273
      3 N         143.4552  139.9069  155.5452 N.ar    1  UNL1       -0.1316
      4 C         143.3480  139.9222  157.0413 C.ar    1  UNL1        0.1615
      5 N         143.0822  138.5195  157.5014 N.ar    1  UNL1       -0.2944
      6 C         142.9265  138.2268  158.9643 C.3     1  UNL1        0.1302
      7 C         143.0366  139.3369  159.9671 C.3     1  UNL1        0.1186
      8 N         143.3024  140.7396  159.5071 N.am    1  UNL1       -0.2688
      9 C         143.4125  141.8497  160.5098 C.2     1  UNL1        0.2493
     10 O         143.6783  143.2524  160.0498 O.2     1  UNL1       -0.2699
     11 C         143.4581  141.0323  158.0441 C.3     1  UNL1        0.1343
     12 C         143.7239  142.4350  157.5840 C.3     1  UNL1        0.0298
     13 C         143.2567  141.5570  161.9727 C.ar    1  UNL1        0.0536
     14 C         144.4519  141.1672  162.7910 C.ar    1  UNL1        0.0045
     15 C         144.2962  140.8745  164.2539 C.ar    1  UNL1        0.0006
     16 C         142.9453  140.9716  164.8985 C.ar    1  UNL1        0.0060
     17 C         141.7501  141.3614  164.0803 C.ar    1  UNL1        0.0006
     18 C         141.9058  141.6541  162.6174 C.ar    1  UNL1        0.0045
     19 C         142.7895  140.6789  166.3615 C.ar    1  UNL1        0.0295
     20 C         142.7391  139.3168  166.9876 C.ar    1  UNL1        0.0070
     21 C         142.5752  139.4930  168.4682 C.ar    1  UNL1        0.0075
     22 C         142.5244  140.9641  168.7571 C.ar    1  UNL1        0.0354
     23 S         142.6568  141.6971  167.4550 S.2     1  UNL1       -0.0864
     24 C         143.0567  133.7714  156.6367 C.ar    1  UNL1        0.2054
     25 N         143.6929  135.1119  156.8570 N.ar    1  UNL1       -0.2088
     26 C         142.7804  136.1573  156.2873 C.ar    1  UNL1        0.1573
     27 C         141.5803  135.4630  155.7149 C.ar    1  UNL1        0.2033
     28 O         141.7511  133.9885  155.9308 O.2     1  UNL1       -0.4352
     29 C         144.9225  132.3893  157.8023 C.3     1  UNL1        0.0097
     30 C         143.6262  132.4467  157.0496 C.3     1  UNL1        0.0766
     31 C         142.8995  131.1792  156.7100 C.3     1  UNL1        0.0097
@<TRIPOS>BOND
     1    29    30    1
     2    30    31    1
     3    30    24    1
     4    24    25   ar
     5    25    26   ar
     6    26     1    1
     7     1     2   ar
     8     2     3   ar
     9     3     4   ar
    10     4     5   ar
    11     5     6    1
    12     6     7    1
    13     7     8    1
    14     8     9   am
    15     9    10    2
    16     9    13    1
    17    13    14   ar
    18    14    15   ar
    19    15    16   ar
    20    16    19    1
    21    19    20   ar
    22    20    21   ar
    23    21    22   ar
    24    22    23   ar
    25    16    17   ar
    26    17    18   ar
    27     8    11    1
    28    11    12    1
    29    26    27   ar
    30    27    28   ar
    31    28    24   ar
    32     5     1   ar
    33    18    13   ar
    34    11     4    1
    35    23    19   ar
@<TRIPOS>MOLECULE
*****
 31 35 0 0 0
SMALL
GASTEIGER

@<TRIPOS>ATOM
      1 C         138.8407  139.5669  160.9575 C.ar    1  UNL1        0.1873
      2 N         139.0801  138.1737  160.4558 N.ar    1  UNL1       -0.1273
      3 N         139.3732  138.2540  158.9869 N.ar    1  UNL1       -0.1316
      4 C         139.3149  139.6968  158.5808 C.ar    1  UNL1        0.1615
      5 N         138.9857  140.5082  159.7987 N.ar    1  UNL1       -0.2944
      6 C         138.8606  141.9994  159.6952 C.3     1  UNL1        0.1302
      7 C         139.0647  142.6792  158.3737 C.3     1  UNL1        0.1186
      8 N         139.3938  141.8678  157.1558 N.am    1  UNL1       -0.2688
      9 C         139.5979  142.5476  155.8344 C.2     1  UNL1        0.2493
     10 O         139.9270  141.7362  154.6165 O.2     1  UNL1       -0.2699
     11 C         139.5189  140.3766  157.2594 C.3     1  UNL1        0.1343
     12 C         139.8480  139.5652  156.0415 C.3     1  UNL1        0.0298
     13 C         139.4728  144.0387  155.7308 C.ar    1  UNL1        0.0536
     14 C         140.5995  144.9192  156.1840 C.ar    1  UNL1        0.0045
     15 C         140.4744  146.4104  156.0805 C.ar    1  UNL1        0.0006
     16 C         139.2226  147.0211  155.5238 C.ar    1  UNL1        0.0060
     17 C         138.0959  146.1407  155.0706 C.ar    1  UNL1        0.0006
     18 C         138.2209  144.6496  155.1741 C.ar    1  UNL1        0.0045
     19 C         139.0974  148.5124  155.4202 C.ar    1  UNL1        0.0295
     20 C         138.3866  149.4071  156.3919 C.ar    1  UNL1        0.0070
     21 C         138.5110  150.8183  155.8990 C.ar    1  UNL1        0.0075
     22 C         139.2988  150.7958  154.6227 C.ar    1  UNL1        0.0354
     23 S         139.6612  149.3705  154.3268 S.2     1  UNL1       -0.0864
     24 C         138.4059  139.9572  164.7948 C.ar    1  UNL1        0.2054
     25 N         138.9616  139.2297  163.6064 N.ar    1  UNL1       -0.2088
     26 C         138.5135  139.9513  162.3701 C.ar    1  UNL1        0.1573
     27 C         137.6809  141.1247  162.7942 C.ar    1  UNL1        0.2033
     28 O         137.6144  141.1284  164.2927 O.2     1  UNL1       -0.4352
     29 C         137.7259  138.5437  166.8659 C.3     1  UNL1        0.0097
     30 C         138.6065  139.5799  166.2325 C.3     1  UNL1        0.0766
     31 C         139.6875  140.2386  167.0371 C.3     1  UNL1        0.0097
@<TRIPOS>BOND
     1    29    30    1
     2    30    31    1
     3    30    24    1
     4    24    25   ar
     5    25    26   ar
     6    26     1    1
     7     1     2   ar
     8     2     3   ar
     9     3     4   ar
    10     4     5   ar
    11     5     6    1
    12     6     7    1
    13     7     8    1
    14     8     9   am
    15     9    10    2
    16     9    13    1
    17    13    14   ar
    18    14    15   ar
    19    15    16   ar
    20    16    19    1
    21    19    20   ar
    22    20    21   ar
    23    21    22   ar
    24    22    23   ar
    25    16    17   ar
    26    17    18   ar
    27     8    11    1
    28    11    12    1
    29    26    27   ar
    30    27    28   ar
    31    28    24   ar
    32     5     1   ar
    33    18    13   ar
    34    11     4    1
    35    23    19   ar
@<TRIPOS>MOLECULE
*****
 31 35 0 0 0
SMALL
GASTEIGER

@<TRIPOS>ATOM
      1 C         138.4683  139.7700  155.8833 C.ar    1  UNL1        0.1873
      2 N         139.3163  139.2270  154.7715 N.ar    1  UNL1       -0.1273
      3 N         140.5474  138.6235  155.3800 N.ar    1  UNL1       -0.1316
      4 C         140.4602  138.7936  156.8678 C.ar    1  UNL1        0.1615
      5 N         139.1753  139.5022  157.1788 N.ar    1  UNL1       -0.2944
      6 C         138.8150  139.8121  158.6015 C.3     1  UNL1        0.1302
      7 C         139.7396  139.4133  159.7133 C.3     1  UNL1        0.1186
      8 N         141.0246  138.7047  159.4023 N.am    1  UNL1       -0.2688
      9 C         141.9493  138.3059  160.5140 C.2     1  UNL1        0.2493
     10 O         143.2343  137.5973  160.2030 O.2     1  UNL1       -0.2699
     11 C         141.3849  138.3949  157.9795 C.3     1  UNL1        0.1343
     12 C         142.6699  137.6863  157.6685 C.3     1  UNL1        0.0298
     13 C         141.5890  138.6158  161.9367 C.ar    1  UNL1        0.0536
     14 C         140.9442  137.5662  162.7928 C.ar    1  UNL1        0.0045
     15 C         140.5839  137.8761  164.2155 C.ar    1  UNL1        0.0006
     16 C         140.8684  139.2355  164.7822 C.ar    1  UNL1        0.0060
     17 C         141.5131  140.2850  163.9262 C.ar    1  UNL1        0.0006
     18 C         141.8734  139.9752  162.5035 C.ar    1  UNL1        0.0045
     19 C         140.5080  139.5453  166.2050 C.ar    1  UNL1        0.0295
     20 C         139.1246  139.5430  166.7847 C.ar    1  UNL1        0.0070
     21 C         139.2295  139.9082  168.2358 C.ar    1  UNL1        0.0075
     22 C         140.6778  140.1362  168.5529 C.ar    1  UNL1        0.0354
     23 S         141.4680  139.9119  167.2977 S.2     1  UNL1       -0.0864
     24 C         134.7620  140.9163  155.7607 C.ar    1  UNL1        0.2054
     25 N         135.8050  139.8863  156.0791 N.ar    1  UNL1       -0.2088
     26 C         137.1455  140.4598  155.7269 C.ar    1  UNL1        0.1573
     27 C         136.9311  141.8443  155.1909 C.ar    1  UNL1        0.2033
     28 O         135.4580  142.1264  155.2118 O.2     1  UNL1       -0.4352
     29 C         132.3288  141.5780  155.1347 C.3     1  UNL1        0.0097
     30 C         133.2829  140.7631  155.9568 C.3     1  UNL1        0.0766
     31 C         132.7576  139.7950  156.9751 C.3     1  UNL1        0.0097
@<TRIPOS>BOND
     1    29    30    1
     2    30    31    1
     3    30    24    1
     4    24    25   ar
     5    25    26   ar
     6    26     1    1
     7     1     2   ar
     8     2     3   ar
     9     3     4   ar
    10     4     5   ar
    11     5     6    1
    12     6     7    1
    13     7     8    1
    14     8     9   am
    15     9    10    2
    16     9    13    1
    17    13    14   ar
    18    14    15   ar
    19    15    16   ar
    20    16    19    1
    21    19    20   ar
    22    20    21   ar
    23    21    22   ar
    24    22    23   ar
    25    16    17   ar
    26    17    18   ar
    27     8    11    1
    28    11    12    1
    29    26    27   ar
    30    27    28   ar
    31    28    24   ar
    32     5     1   ar
    33    18    13   ar
    34    11     4    1
    35    23    19   ar
@<TRIPOS>MOLECULE
*****
 31 35 0 0 0
SMALL
GASTEIGER

@<TRIPOS>ATOM
      1 C         141.0672  140.8665  157.8177 C.ar    1  UNL1        0.1873
      2 N         140.7556  141.9844  156.8673 N.ar    1  UNL1       -0.1273
      3 N         140.6901  143.2586  157.6560 N.ar    1  UNL1       -0.1316
      4 C         140.9613  142.9282  159.0939 C.ar    1  UNL1        0.1615
      5 N         141.1943  141.4498  159.1938 N.ar    1  UNL1       -0.2944
      6 C         141.4922  140.8258  160.5248 C.3     1  UNL1        0.1302
      7 C         141.5570  141.6801  161.7561 C.3     1  UNL1        0.1186
      8 N         141.3240  143.1585  161.6562 N.am    1  UNL1       -0.2688
      9 C         141.3888  144.0129  162.8874 C.2     1  UNL1        0.2493
     10 O         141.1558  145.4913  162.7874 O.2     1  UNL1       -0.2699
     11 C         141.0261  143.7826  160.3250 C.3     1  UNL1        0.1343
     12 C         140.7931  145.2610  160.2251 C.3     1  UNL1        0.0298
     13 C         141.6867  143.3889  164.2184 C.ar    1  UNL1        0.0536
     14 C         140.5626  142.9477  165.1083 C.ar    1  UNL1        0.0045
     15 C         140.8606  142.3237  166.4395 C.ar    1  UNL1        0.0006
     16 C         142.2825  142.1408  166.8806 C.ar    1  UNL1        0.0060
     17 C         143.4065  142.5819  165.9907 C.ar    1  UNL1        0.0006
     18 C         143.1087  143.2059  164.6597 C.ar    1  UNL1        0.0045
     19 C         142.5804  141.5167  168.2118 C.ar    1  UNL1        0.0295
     20 C         143.4265  142.1148  169.2964 C.ar    1  UNL1        0.0070
     21 C         143.4535  141.1527  170.4469 C.ar    1  UNL1        0.0075
     22 C         142.6241  139.9599  170.0733 C.ar    1  UNL1        0.0354
     23 S         142.0845  140.1849  168.6918 S.2     1  UNL1       -0.0864
     24 C         142.2088  137.2835  156.8563 C.ar    1  UNL1        0.2054
     25 N         142.5190  138.7162  157.1746 N.ar    1  UNL1       -0.2088
     26 C         141.2241  139.4193  157.4556 C.ar    1  UNL1        0.1573
     27 C         140.1137  138.4213  157.3109 C.ar    1  UNL1        0.2033
     28 O         140.7223  137.1013  156.9405 O.2     1  UNL1       -0.4352
     29 C         143.1731  134.8992  157.2242 C.3     1  UNL1        0.0097
     30 C         143.2095  136.2199  156.5138 C.3     1  UNL1        0.0766
     31 C         144.2466  136.4768  155.4610 C.3     1  UNL1        0.0097
@<TRIPOS>BOND
     1    29    30    1
     2    30    31    1
     3    30    24    1
     4    24    25   ar
     5    25    26   ar
     6    26     1    1
     7     1     2   ar
     8     2     3   ar
     9     3     4   ar
    10     4     5   ar
    11     5     6    1
    12     6     7    1
    13     7     8    1
    14     8     9   am
    15     9    10    2
    16     9    13    1
    17    13    14   ar
    18    14    15   ar
    19    15    16   ar
    20    16    19    1
    21    19    20   ar
    22    20    21   ar
    23    21    22   ar
    24    22    23   ar
    25    16    17   ar
    26    17    18   ar
    27     8    11    1
    28    11    12    1
    29    26    27   ar
    30    27    28   ar
    31    28    24   ar
    32     5     1   ar
    33    18    13   ar
    34    11     4    1
    35    23    19   ar
@<TRIPOS>MOLECULE
*****
 31 35 0 0 0
SMALL
GASTEIGER

@<TRIPOS>ATOM
      1 C         137.4017  142.3225  155.2847 C.ar    1  UNL1        0.1873
      2 N         137.8045  143.1185  154.0789 N.ar    1  UNL1       -0.1273
      3 N         138.8775  144.0803  154.4956 N.ar    1  UNL1       -0.1316
      4 C         139.1378  143.8787  155.9591 C.ar    1  UNL1        0.1615
      5 N         138.2257  142.7923  156.4468 N.ar    1  UNL1       -0.2944
      6 C         138.2634  142.3712  157.8859 C.3     1  UNL1        0.1302
      7 C         139.2131  143.0365  158.8375 C.3     1  UNL1        0.1186
      8 N         140.1252  144.1229  158.3498 N.am    1  UNL1       -0.2688
      9 C         141.0749  144.7882  159.3013 C.2     1  UNL1        0.2493
     10 O         141.9870  145.8746  158.8136 O.2     1  UNL1       -0.2699
     11 C         140.0875  144.5440  156.9105 C.3     1  UNL1        0.1343
     12 C         140.9996  145.6304  156.4228 C.3     1  UNL1        0.0298
     13 C         141.1126  144.3671  160.7404 C.ar    1  UNL1        0.0536
     14 C         142.0322  143.2649  161.1756 C.ar    1  UNL1        0.0045
     15 C         142.0698  142.8438  162.6148 C.ar    1  UNL1        0.0006
     16 C         141.1878  143.5250  163.6188 C.ar    1  UNL1        0.0060
     17 C         140.2682  144.6272  163.1837 C.ar    1  UNL1        0.0006
     18 C         140.2306  145.0483  161.7445 C.ar    1  UNL1        0.0045
     19 C         141.2254  143.1039  165.0581 C.ar    1  UNL1        0.0295
     20 C         140.1166  143.2698  166.0545 C.ar    1  UNL1        0.0070
     21 C         140.5843  142.7114  167.3658 C.ar    1  UNL1        0.0075
     22 C         141.9823  142.2004  167.1797 C.ar    1  UNL1        0.0354
     23 S         142.3785  142.4430  165.7534 S.2     1  UNL1       -0.0864
     24 C         134.2993  140.0411  155.7702 C.ar    1  UNL1        0.2054
     25 N         135.0119  141.3449  155.9763 N.ar    1  UNL1       -0.2088
     26 C         136.3581  141.2457  155.3221 C.ar    1  UNL1        0.1573
     27 C         136.4775  139.8807  154.7117 C.ar    1  UNL1        0.2033
     28 O         135.2051  139.1362  154.9887 O.2     1  UNL1       -0.4352
     29 C         131.7864  140.6515  156.0209 C.3     1  UNL1        0.0097
     30 C         132.9227  139.7018  156.2598 C.3     1  UNL1        0.0766
     31 C         132.6822  138.4128  156.9882 C.3     1  UNL1        0.0097
@<TRIPOS>BOND
     1    29    30    1
     2    30    31    1
     3    30    24    1
     4    24    25   ar
     5    25    26   ar
     6    26     1    1
     7     1     2   ar
     8     2     3   ar
     9     3     4   ar
    10     4     5   ar
    11     5     6    1
    12     6     7    1
    13     7     8    1
    14     8     9   am
    15     9    10    2
    16     9    13    1
    17    13    14   ar
    18    14    15   ar
    19    15    16   ar
    20    16    19    1
    21    19    20   ar
    22    20    21   ar
    23    21    22   ar
    24    22    23   ar
    25    16    17   ar
    26    17    18   ar
    27     8    11    1
    28    11    12    1
    29    26    27   ar
    30    27    28   ar
    31    28    24   ar
    32     5     1   ar
    33    18    13   ar
    34    11     4    1
    35    23    19   ar
