@<TRIPOS>MOLECULE
*****
 37 41 0 0 0
SMALL
GASTEIGER

@<TRIPOS>ATOM
      1 C         142.3006  139.1309  158.7087 C.3     1  UNL1        0.0806
      2 C         142.2341  138.9704  157.2187 C.3     1  UNL1        0.0108
      3 C         142.4936  137.6305  156.5964 C.3     1  UNL1        0.0165
      4 C         142.8196  136.4511  157.4640 C.3     1  UNL1        0.0580
      5 C         142.8862  136.6115  158.9538 C.3     1  UNL1        0.0208
      6 C         142.6267  137.9514  159.5762 C.3     1  UNL1        0.0323
      7 C         142.6933  138.1119  161.0662 C.ar    1  UNL1       -0.0220
      8 C         141.4961  137.7873  161.9097 C.ar    1  UNL1       -0.0038
      9 C         141.5628  137.9478  163.3995 C.ar    1  UNL1        0.0064
     10 C         142.8265  138.4328  164.0459 C.ar    1  UNL1        0.0345
     11 BR        142.8931  138.5932  165.5359 Br      1  UNL1       -0.0490
     12 C         144.0236  138.7573  163.2024 C.ar    1  UNL1        0.0064
     13 C         143.9570  138.5968  161.7125 C.ar    1  UNL1       -0.0038
     14 N         143.0791  135.1112  156.8416 N.3     1  UNL1       -0.2697
     15 C         142.7168  134.8680  155.4064 C.3     1  UNL1        0.1046
     16 C         142.9763  133.5281  154.7840 C.3     1  UNL1        0.1595
     17 O         143.5981  132.4314  155.5969 O.3     1  UNL1       -0.3508
     18 C         143.9603  132.6745  157.0320 C.3     1  UNL1        0.1595
     19 C         143.7009  134.0144  157.6543 C.3     1  UNL1        0.1046
     20 O         140.6958  140.7763  159.9200 O.2     1  UNL1       -0.2751
     21 C         142.0412  140.4708  159.3311 C.2     1  UNL1        0.2228
     22 N         143.1269  141.5051  159.3645 N.am    1  UNL1       -0.2962
     23 H         144.0099  141.3046  158.9780 H       1  UNL1        0.1501
     24 C         142.8674  142.8450  159.9869 C.3     1  UNL1        0.1534
     25 C         143.3356  143.1264  161.3840 C.ar    1  UNL1        0.0028
     26 C         144.3203  142.2075  162.0443 C.ar    1  UNL1       -0.0014
     27 C         144.7884  142.4889  163.4413 C.ar    1  UNL1        0.0111
     28 C         144.2718  143.6891  164.1780 C.ar    1  UNL1        0.0577
     29 CL        144.7400  143.9705  165.5750 Cl      1  UNL1       -0.0822
     30 C         143.2871  144.6079  163.5176 C.ar    1  UNL1        0.0111
     31 C         142.8190  144.3265  162.1206 C.ar    1  UNL1       -0.0014
     32 C         142.1398  143.9035  159.2123 C.ar    1  UNL1        0.1611
     33 N         140.6846  144.1569  159.4731 N.ar    1  UNL1       -0.2271
     34 C         139.9570  145.2155  158.6984 C.ar    1  UNL1        0.1019
     35 C         140.6846  146.0206  157.6630 C.ar    1  UNL1        0.0413
     36 C         142.1399  145.7672  157.4021 C.ar    1  UNL1        0.1019
     37 N         142.8675  144.7087  158.1767 N.ar    1  UNL1       -0.2271
@<TRIPOS>BOND
     1    20    21    2
     2    21    22   am
     3    22    24    1
     4    24    25    1
     5    25    26   ar
     6    26    27   ar
     7    27    28   ar
     8    28    29    1
     9    28    30   ar
    10    30    31   ar
    11    24    32    1
    12    32    33   ar
    13    33    34   ar
    14    34    35   ar
    15    35    36   ar
    16    36    37   ar
    17     1    21    1
    18     1     2    1
    19     2     3    1
    20     3     4    1
    21     4    14    1
    22    14    15    1
    23    15    16    1
    24    16    17    1
    25    17    18    1
    26    18    19    1
    27     4     5    1
    28     5     6    1
    29     6     7    1
    30     7     8   ar
    31     8     9   ar
    32     9    10   ar
    33    10    11    1
    34    10    12   ar
    35    12    13   ar
    36    31    25   ar
    37    37    32   ar
    38     6     1    1
    39    13     7   ar
    40    19    14    1
    41    22    23    1
@<TRIPOS>MOLECULE
*****
 37 41 0 0 0
SMALL
GASTEIGER

@<TRIPOS>ATOM
      1 C         142.6065  139.1789  158.2694 C.3     1  UNL1        0.0806
      2 C         142.6060  138.9617  156.7851 C.3     1  UNL1        0.0108
      3 C         142.7461  137.5753  156.2300 C.3     1  UNL1        0.0165
      4 C         142.8867  136.4060  157.1590 C.3     1  UNL1        0.0580
      5 C         142.8873  136.6232  158.6432 C.3     1  UNL1        0.0208
      6 C         142.7472  138.0097  159.1984 C.3     1  UNL1        0.0323
      7 C         142.7477  138.2268  160.6826 C.ar    1  UNL1       -0.0220
      8 C         141.5006  137.9766  161.4777 C.ar    1  UNL1       -0.0038
      9 C         141.5012  138.1937  162.9618 C.ar    1  UNL1        0.0064
     10 C         142.7489  138.6612  163.6509 C.ar    1  UNL1        0.0345
     11 BR        142.7494  138.8783  165.1352 Br      1  UNL1       -0.0490
     12 C         143.9959  138.9114  162.8559 C.ar    1  UNL1        0.0064
     13 C         143.9953  138.6942  161.3717 C.ar    1  UNL1       -0.0038
     14 N         143.0268  135.0196  156.6039 N.3     1  UNL1       -0.2697
     15 C         142.6698  134.7450  155.1731 C.3     1  UNL1        0.1046
     16 C         142.8099  133.3586  154.6179 C.3     1  UNL1        0.1595
     17 O         143.3070  132.2468  155.4936 O.3     1  UNL1       -0.3508
     18 C         143.6641  132.5214  156.9243 C.3     1  UNL1        0.1595
     19 C         143.5240  133.9078  157.4795 C.3     1  UNL1        0.1046
     20 O         143.6882  141.3951  159.0870 O.2     1  UNL1       -0.2751
     21 C         142.4664  140.5653  158.8245 C.2     1  UNL1        0.2228
     22 N         141.1046  141.1219  159.1172 N.am    1  UNL1       -0.2962
     23 H         140.3028  140.5773  158.9450 H       1  UNL1        0.1501
     24 C         140.9645  142.5083  159.6724 C.3     1  UNL1        0.1534
     25 C         140.8165  142.7127  161.1511 C.ar    1  UNL1        0.0028
     26 C         139.8572  143.7405  161.6738 C.ar    1  UNL1       -0.0014
     27 C         139.7092  143.9449  163.1524 C.ar    1  UNL1        0.0111
     28 C         140.5205  143.1214  164.1083 C.ar    1  UNL1        0.0577
     29 CL        140.3724  143.3258  165.5869 Cl      1  UNL1       -0.0822
     30 C         141.4798  142.0936  163.5855 C.ar    1  UNL1        0.0111
     31 C         141.6278  141.8892  162.1069 C.ar    1  UNL1       -0.0014
     32 C         140.9725  143.6903  158.7490 C.ar    1  UNL1        0.1611
     33 N         139.8258  143.9150  157.8084 N.ar    1  UNL1       -0.2271
     34 C         139.8338  145.0971  156.8849 C.ar    1  UNL1        0.1019
     35 C         140.9884  146.0544  156.9021 C.ar    1  UNL1        0.0413
     36 C         142.1350  145.8298  157.8427 C.ar    1  UNL1        0.1019
     37 N         142.1271  144.6478  158.7661 N.ar    1  UNL1       -0.2271
@<TRIPOS>BOND
     1    20    21    2
     2    21    22   am
     3    22    24    1
     4    24    25    1
     5    25    26   ar
     6    26    27   ar
     7    27    28   ar
     8    28    29    1
     9    28    30   ar
    10    30    31   ar
    11    24    32    1
    12    32    33   ar
    13    33    34   ar
    14    34    35   ar
    15    35    36   ar
    16    36    37   ar
    17     1    21    1
    18     1     2    1
    19     2     3    1
    20     3     4    1
    21     4    14    1
    22    14    15    1
    23    15    16    1
    24    16    17    1
    25    17    18    1
    26    18    19    1
    27     4     5    1
    28     5     6    1
    29     6     7    1
    30     7     8   ar
    31     8     9   ar
    32     9    10   ar
    33    10    11    1
    34    10    12   ar
    35    12    13   ar
    36    31    25   ar
    37    37    32   ar
    38     6     1    1
    39    13     7   ar
    40    19    14    1
    41    22    23    1
@<TRIPOS>MOLECULE
*****
 37 41 0 0 0
SMALL
GASTEIGER

@<TRIPOS>ATOM
      1 C         141.7029  139.0403  161.2158 C.3     1  UNL1        0.0806
      2 C         141.6236  137.7904  162.0414 C.3     1  UNL1        0.0108
      3 C         140.9770  137.8251  163.3945 C.3     1  UNL1        0.0165
      4 C         140.4098  139.1098  163.9219 C.3     1  UNL1        0.0580
      5 C         140.4892  140.3596  163.0963 C.3     1  UNL1        0.0208
      6 C         141.1358  140.3248  161.7433 C.3     1  UNL1        0.0323
      7 C         141.2151  141.5747  160.9177 C.ar    1  UNL1       -0.0220
      8 C         142.4300  142.4509  160.9982 C.ar    1  UNL1       -0.0038
      9 C         142.5093  143.7007  160.1726 C.ar    1  UNL1        0.0064
     10 C         141.3738  144.0744  159.2665 C.ar    1  UNL1        0.0345
     11 BR        141.4531  145.3243  158.4409 Br      1  UNL1       -0.0490
     12 C         140.1589  143.1982  159.1860 C.ar    1  UNL1        0.0064
     13 C         140.0796  141.9484  160.0116 C.ar    1  UNL1       -0.0038
     14 N         139.7633  139.1445  165.2750 N.3     1  UNL1       -0.2697
     15 C         138.4741  138.4142  165.5091 C.3     1  UNL1        0.1046
     16 C         137.8275  138.4489  166.8622 C.3     1  UNL1        0.1595
     17 O         138.4701  139.2139  167.9811 O.3     1  UNL1       -0.3508
     18 C         139.7592  139.9442  167.7469 C.3     1  UNL1        0.1595
     19 C         140.4058  139.9095  166.3938 C.3     1  UNL1        0.1046
     20 O         143.8434  138.9349  159.7470 O.2     1  UNL1       -0.2751
     21 C         142.3495  139.0056  159.8628 C.2     1  UNL1        0.2228
     22 N         141.5023  139.0416  158.6255 N.am    1  UNL1       -0.2962
     23 H         140.5218  139.0880  158.7015 H       1  UNL1        0.1501
     24 C         142.1488  139.0069  157.2725 C.3     1  UNL1        0.1534
     25 C         142.4838  140.2882  156.5682 C.ar    1  UNL1        0.0028
     26 C         142.1240  140.4660  155.1230 C.ar    1  UNL1       -0.0014
     27 C         142.4591  141.7473  154.4188 C.ar    1  UNL1        0.0111
     28 C         143.1539  142.8509  155.1599 C.ar    1  UNL1        0.0577
     29 CL        143.4889  144.1323  154.4557 Cl      1  UNL1       -0.0822
     30 C         143.5137  142.6732  156.6052 C.ar    1  UNL1        0.0111
     31 C         143.1787  141.3918  157.3094 C.ar    1  UNL1       -0.0014
     32 C         142.4604  137.6908  156.6237 C.ar    1  UNL1        0.1611
     33 N         143.8649  137.3768  156.2011 N.ar    1  UNL1       -0.2271
     34 C         144.1764  136.0607  155.5523 C.ar    1  UNL1        0.1019
     35 C         143.0834  135.0587  155.3260 C.ar    1  UNL1        0.0413
     36 C         141.6788  135.3728  155.7485 C.ar    1  UNL1        0.1019
     37 N         141.3673  136.6888  156.3973 N.ar    1  UNL1       -0.2271
@<TRIPOS>BOND
     1    20    21    2
     2    21    22   am
     3    22    24    1
     4    24    25    1
     5    25    26   ar
     6    26    27   ar
     7    27    28   ar
     8    28    29    1
     9    28    30   ar
    10    30    31   ar
    11    24    32    1
    12    32    33   ar
    13    33    34   ar
    14    34    35   ar
    15    35    36   ar
    16    36    37   ar
    17     1    21    1
    18     1     2    1
    19     2     3    1
    20     3     4    1
    21     4    14    1
    22    14    15    1
    23    15    16    1
    24    16    17    1
    25    17    18    1
    26    18    19    1
    27     4     5    1
    28     5     6    1
    29     6     7    1
    30     7     8   ar
    31     8     9   ar
    32     9    10   ar
    33    10    11    1
    34    10    12   ar
    35    12    13   ar
    36    31    25   ar
    37    37    32   ar
    38     6     1    1
    39    13     7   ar
    40    19    14    1
    41    22    23    1
@<TRIPOS>MOLECULE
*****
 37 41 0 0 0
SMALL
GASTEIGER

@<TRIPOS>ATOM
      1 C         141.6811  138.7322  161.4073 C.3     1  UNL1        0.0806
      2 C         141.5498  137.5291  162.2934 C.3     1  UNL1        0.0108
      3 C         140.9278  137.6625  163.6519 C.3     1  UNL1        0.0165
      4 C         140.4372  138.9990  164.1242 C.3     1  UNL1        0.0580
      5 C         140.5686  140.2021  163.2381 C.3     1  UNL1        0.0208
      6 C         141.1906  140.0687  161.8796 C.3     1  UNL1        0.0323
      7 C         141.3220  141.2719  160.9935 C.ar    1  UNL1       -0.0220
      8 C         140.1566  141.7233  160.1640 C.ar    1  UNL1       -0.0038
      9 C         140.2880  142.9264  159.2780 C.ar    1  UNL1        0.0064
     10 C         141.5848  143.6781  159.2213 C.ar    1  UNL1        0.0345
     11 BR        141.7162  144.8813  158.3351 Br      1  UNL1       -0.0490
     12 C         142.7502  143.2267  160.0507 C.ar    1  UNL1        0.0064
     13 C         142.6188  142.0236  160.9368 C.ar    1  UNL1       -0.0038
     14 N         139.8153  139.1324  165.4826 N.3     1  UNL1       -0.2697
     15 C         138.4432  138.5819  165.7367 C.3     1  UNL1        0.1046
     16 C         137.8213  138.7153  167.0951 C.3     1  UNL1        0.1595
     17 O         138.5714  139.3992  168.1995 O.3     1  UNL1       -0.3508
     18 C         139.9434  139.9497  167.9455 C.3     1  UNL1        0.1595
     19 C         140.5653  139.8163  166.5870 C.3     1  UNL1        0.1046
     20 O         143.7820  138.7838  159.8796 O.2     1  UNL1       -0.2751
     21 C         142.3031  138.5988  160.0488 C.2     1  UNL1        0.2228
     22 N         141.4462  138.2805  158.8596 N.am    1  UNL1       -0.2962
     23 H         140.4755  138.1591  158.9707 H       1  UNL1        0.1501
     24 C         142.0681  138.1471  157.5012 C.3     1  UNL1        0.1534
     25 C         142.6799  139.3441  156.8356 C.ar    1  UNL1        0.0028
     26 C         143.9365  139.1941  156.0304 C.ar    1  UNL1       -0.0014
     27 C         144.5482  140.3911  155.3649 C.ar    1  UNL1        0.0111
     28 C         143.9032  141.7381  155.5044 C.ar    1  UNL1        0.0577
     29 CL        144.5150  142.9351  154.8388 Cl      1  UNL1       -0.0822
     30 C         142.6466  141.8882  156.3095 C.ar    1  UNL1        0.0111
     31 C         142.0349  140.6912  156.9751 C.ar    1  UNL1       -0.0014
     32 C         142.0783  136.8168  156.8083 C.ar    1  UNL1        0.1611
     33 N         141.0858  136.5298  155.7209 N.ar    1  UNL1       -0.2271
     34 C         141.0960  135.1994  155.0281 C.ar    1  UNL1        0.1019
     35 C         142.0988  134.1560  155.4227 C.ar    1  UNL1        0.0413
     36 C         143.0914  134.4430  156.5100 C.ar    1  UNL1        0.1019
     37 N         143.0812  135.7733  157.2029 N.ar    1  UNL1       -0.2271
@<TRIPOS>BOND
     1    20    21    2
     2    21    22   am
     3    22    24    1
     4    24    25    1
     5    25    26   ar
     6    26    27   ar
     7    27    28   ar
     8    28    29    1
     9    28    30   ar
    10    30    31   ar
    11    24    32    1
    12    32    33   ar
    13    33    34   ar
    14    34    35   ar
    15    35    36   ar
    16    36    37   ar
    17     1    21    1
    18     1     2    1
    19     2     3    1
    20     3     4    1
    21     4    14    1
    22    14    15    1
    23    15    16    1
    24    16    17    1
    25    17    18    1
    26    18    19    1
    27     4     5    1
    28     5     6    1
    29     6     7    1
    30     7     8   ar
    31     8     9   ar
    32     9    10   ar
    33    10    11    1
    34    10    12   ar
    35    12    13   ar
    36    31    25   ar
    37    37    32   ar
    38     6     1    1
    39    13     7   ar
    40    19    14    1
    41    22    23    1
@<TRIPOS>MOLECULE
*****
 37 41 0 0 0
SMALL
GASTEIGER

@<TRIPOS>ATOM
      1 C         141.9861  138.8729  161.4685 C.3     1  UNL1        0.0806
      2 C         141.9185  137.6535  162.3394 C.3     1  UNL1        0.0108
      3 C         141.1820  137.7043  163.6452 C.3     1  UNL1        0.0165
      4 C         140.5131  138.9745  164.0800 C.3     1  UNL1        0.0580
      5 C         140.5807  140.1939  163.2092 C.3     1  UNL1        0.0208
      6 C         141.3172  140.1431  161.9034 C.3     1  UNL1        0.0323
      7 C         141.3848  141.3626  161.0325 C.ar    1  UNL1       -0.0220
      8 C         142.5648  142.2842  161.1228 C.ar    1  UNL1       -0.0038
      9 C         142.6323  143.5036  160.2519 C.ar    1  UNL1        0.0064
     10 C         141.5198  143.8014  159.2908 C.ar    1  UNL1        0.0345
     11 BR        141.5874  145.0209  158.4199 Br      1  UNL1       -0.0490
     12 C         140.3398  142.8798  159.2005 C.ar    1  UNL1        0.0064
     13 C         140.2723  141.6604  160.0714 C.ar    1  UNL1       -0.0038
     14 N         139.7766  139.0253  165.3858 N.3     1  UNL1       -0.2697
     15 C         138.4957  138.2631  165.5546 C.3     1  UNL1        0.1046
     16 C         137.7593  138.3139  166.8603 C.3     1  UNL1        0.1595
     17 O         138.3037  139.1269  167.9973 O.3     1  UNL1       -0.3508
     18 C         139.5845  139.8891  167.8285 C.3     1  UNL1        0.1595
     19 C         140.3210  139.8383  166.5228 C.3     1  UNL1        0.1046
     20 O         144.2131  138.9881  160.1354 O.2     1  UNL1       -0.2751
     21 C         142.7225  138.8221  160.1627 C.2     1  UNL1        0.2228
     22 N         141.9685  138.6054  158.8843 N.am    1  UNL1       -0.2962
     23 H         140.9902  138.4964  158.9023 H       1  UNL1        0.1501
     24 C         142.7050  138.5546  157.5786 C.3     1  UNL1        0.1534
     25 C         142.6526  137.3148  156.7357 C.ar    1  UNL1        0.0028
     26 C         142.9999  135.9847  157.3358 C.ar    1  UNL1       -0.0014
     27 C         142.9475  134.7451  156.4929 C.ar    1  UNL1        0.0111
     28 C         142.5479  134.8355  155.0500 C.ar    1  UNL1        0.0577
     29 CL        142.4955  133.5958  154.2071 Cl      1  UNL1       -0.0822
     30 C         142.2006  136.1656  154.4499 C.ar    1  UNL1        0.0111
     31 C         142.2530  137.4053  155.2927 C.ar    1  UNL1       -0.0014
     32 C         143.4938  139.7434  157.1157 C.ar    1  UNL1        0.1611
     33 N         142.9176  141.1223  157.2448 N.ar    1  UNL1       -0.2271
     34 C         143.7065  142.3112  156.7818 C.ar    1  UNL1        0.1019
     35 C         145.0715  142.1212  156.1898 C.ar    1  UNL1        0.0413
     36 C         145.6478  140.7423  156.0607 C.ar    1  UNL1        0.1019
     37 N         144.8589  139.5534  156.5236 N.ar    1  UNL1       -0.2271
@<TRIPOS>BOND
     1    20    21    2
     2    21    22   am
     3    22    24    1
     4    24    25    1
     5    25    26   ar
     6    26    27   ar
     7    27    28   ar
     8    28    29    1
     9    28    30   ar
    10    30    31   ar
    11    24    32    1
    12    32    33   ar
    13    33    34   ar
    14    34    35   ar
    15    35    36   ar
    16    36    37   ar
    17     1    21    1
    18     1     2    1
    19     2     3    1
    20     3     4    1
    21     4    14    1
    22    14    15    1
    23    15    16    1
    24    16    17    1
    25    17    18    1
    26    18    19    1
    27     4     5    1
    28     5     6    1
    29     6     7    1
    30     7     8   ar
    31     8     9   ar
    32     9    10   ar
    33    10    11    1
    34    10    12   ar
    35    12    13   ar
    36    31    25   ar
    37    37    32   ar
    38     6     1    1
    39    13     7   ar
    40    19    14    1
    41    22    23    1
@<TRIPOS>MOLECULE
*****
 37 41 0 0 0
SMALL
GASTEIGER

@<TRIPOS>ATOM
      1 C         140.5744  143.2613  157.7175 C.3     1  UNL1        0.0806
      2 C         140.4189  143.4748  156.2408 C.3     1  UNL1        0.0108
      3 C         140.0708  144.8347  155.7122 C.3     1  UNL1        0.0165
      4 C         139.8781  145.9812  156.6603 C.3     1  UNL1        0.0580
      5 C         140.0336  145.7676  158.1368 C.3     1  UNL1        0.0208
      6 C         140.3817  144.4077  158.6654 C.3     1  UNL1        0.0323
      7 C         140.5372  144.1942  160.1420 C.ar    1  UNL1       -0.0220
      8 C         139.3773  143.6999  160.9546 C.ar    1  UNL1       -0.0038
      9 C         139.5328  143.4865  162.4311 C.ar    1  UNL1        0.0064
     10 C         140.8483  143.7672  163.0951 C.ar    1  UNL1        0.0345
     11 BR        141.0037  143.5537  164.5717 Br      1  UNL1       -0.0490
     12 C         142.0082  144.2615  162.2825 C.ar    1  UNL1        0.0064
     13 C         141.8526  144.4750  160.8060 C.ar    1  UNL1       -0.0038
     14 N         139.5300  147.3411  156.1317 N.3     1  UNL1       -0.2697
     15 C         138.7481  148.2985  156.9815 C.3     1  UNL1        0.1046
     16 C         138.3999  149.6584  156.4529 C.3     1  UNL1        0.1595
     17 O         138.8337  150.0609  155.0745 O.3     1  UNL1       -0.3508
     18 C         139.6155  149.1036  154.2248 C.3     1  UNL1        0.1595
     19 C         139.9637  147.7436  154.7534 C.3     1  UNL1        0.1046
     20 O         142.3602  141.5078  158.4149 O.2     1  UNL1       -0.2751
     21 C         140.9226  141.9014  158.2460 C.2     1  UNL1        0.2228
     22 N         139.8332  140.9351  158.6057 N.am    1  UNL1       -0.2962
     23 H         138.8897  141.1934  158.4949 H       1  UNL1        0.1501
     24 C         140.1813  139.5751  159.1343 C.3     1  UNL1        0.1534
     25 C         139.9977  139.2670  160.5909 C.ar    1  UNL1        0.0028
     26 C         140.7406  140.0603  161.6247 C.ar    1  UNL1       -0.0014
     27 C         140.5570  139.7521  163.0812 C.ar    1  UNL1        0.0111
     28 C         139.6305  138.6508  163.5038 C.ar    1  UNL1        0.0577
     29 CL        139.4469  138.3427  164.9603 Cl      1  UNL1       -0.0822
     30 C         138.8876  137.8575  162.4699 C.ar    1  UNL1        0.0111
     31 C         139.0712  138.1657  161.0135 C.ar    1  UNL1       -0.0014
     32 C         140.7130  138.5234  158.2065 C.ar    1  UNL1        0.1611
     33 N         142.1252  138.0390  158.3523 N.ar    1  UNL1       -0.2271
     34 C         142.6569  136.9871  157.4244 C.ar    1  UNL1        0.1019
     35 C         141.7765  136.4197  156.3507 C.ar    1  UNL1        0.0413
     36 C         140.3643  136.9041  156.2048 C.ar    1  UNL1        0.1019
     37 N         139.8326  137.9559  157.1327 N.ar    1  UNL1       -0.2271
@<TRIPOS>BOND
     1    20    21    2
     2    21    22   am
     3    22    24    1
     4    24    25    1
     5    25    26   ar
     6    26    27   ar
     7    27    28   ar
     8    28    29    1
     9    28    30   ar
    10    30    31   ar
    11    24    32    1
    12    32    33   ar
    13    33    34   ar
    14    34    35   ar
    15    35    36   ar
    16    36    37   ar
    17     1    21    1
    18     1     2    1
    19     2     3    1
    20     3     4    1
    21     4    14    1
    22    14    15    1
    23    15    16    1
    24    16    17    1
    25    17    18    1
    26    18    19    1
    27     4     5    1
    28     5     6    1
    29     6     7    1
    30     7     8   ar
    31     8     9   ar
    32     9    10   ar
    33    10    11    1
    34    10    12   ar
    35    12    13   ar
    36    31    25   ar
    37    37    32   ar
    38     6     1    1
    39    13     7   ar
    40    19    14    1
    41    22    23    1
@<TRIPOS>MOLECULE
*****
 37 41 0 0 0
SMALL
GASTEIGER

@<TRIPOS>ATOM
      1 C         142.0062  139.0126  158.3655 C.3     1  UNL1        0.0806
      2 C         141.8606  138.7088  156.9037 C.3     1  UNL1        0.0108
      3 C         142.2312  137.3534  156.3788 C.3     1  UNL1        0.0165
      4 C         142.7474  136.3018  157.3157 C.3     1  UNL1        0.0580
      5 C         142.8930  136.6055  158.7773 C.3     1  UNL1        0.0208
      6 C         142.5223  137.9609  159.3022 C.3     1  UNL1        0.0323
      7 C         142.6679  138.2647  160.7640 C.ar    1  UNL1       -0.0220
      8 C         143.9565  138.8249  161.2889 C.ar    1  UNL1       -0.0038
      9 C         144.1021  139.1286  162.7505 C.ar    1  UNL1        0.0064
     10 C         142.9590  138.8721  163.6873 C.ar    1  UNL1        0.0345
     11 BR        143.1046  139.1758  165.1491 Br      1  UNL1       -0.0490
     12 C         141.6704  138.3118  163.1624 C.ar    1  UNL1        0.0064
     13 C         141.5249  138.0081  161.7008 C.ar    1  UNL1       -0.0038
     14 N         143.1180  134.9464  156.7908 N.3     1  UNL1       -0.2697
     15 C         142.8071  134.5818  155.3693 C.3     1  UNL1        0.1046
     16 C         143.1777  133.2264  154.8444 C.3     1  UNL1        0.1595
     17 O         143.8593  132.2356  155.7409 O.3     1  UNL1       -0.3508
     18 C         144.1702  132.6001  157.1623 C.3     1  UNL1        0.1595
     19 C         143.7996  133.9555  157.6872 C.3     1  UNL1        0.1046
     20 O         142.7072  141.3697  159.2038 O.2     1  UNL1       -0.2751
     21 C         141.6355  140.3680  158.8904 C.2     1  UNL1        0.2228
     22 N         140.1933  140.7217  159.1019 N.am    1  UNL1       -0.2962
     23 H         139.4899  140.0643  158.8962 H       1  UNL1        0.1501
     24 C         139.8227  142.0771  159.6268 C.3     1  UNL1        0.1534
     25 C         139.8733  143.2718  158.7210 C.ar    1  UNL1        0.0028
     26 C         140.5750  144.5207  159.1655 C.ar    1  UNL1       -0.0014
     27 C         140.6256  145.7153  158.2597 C.ar    1  UNL1        0.0111
     28 C         139.9745  145.6608  156.9095 C.ar    1  UNL1        0.0577
     29 CL        140.0251  146.8555  156.0037 Cl      1  UNL1       -0.0822
     30 C         139.2727  144.4119  156.4650 C.ar    1  UNL1        0.0111
     31 C         139.2222  143.2173  157.3708 C.ar    1  UNL1       -0.0014
     32 C         139.4014  142.2379  161.0574 C.ar    1  UNL1        0.1611
     33 N         140.2345  141.6464  162.1556 N.ar    1  UNL1       -0.2271
     34 C         139.8132  141.8072  163.5862 C.ar    1  UNL1        0.1019
     35 C         138.5589  142.5596  163.9187 C.ar    1  UNL1        0.0413
     36 C         137.7258  143.1511  162.8205 C.ar    1  UNL1        0.1019
     37 N         138.1470  142.9903  161.3899 N.ar    1  UNL1       -0.2271
@<TRIPOS>BOND
     1    20    21    2
     2    21    22   am
     3    22    24    1
     4    24    25    1
     5    25    26   ar
     6    26    27   ar
     7    27    28   ar
     8    28    29    1
     9    28    30   ar
    10    30    31   ar
    11    24    32    1
    12    32    33   ar
    13    33    34   ar
    14    34    35   ar
    15    35    36   ar
    16    36    37   ar
    17     1    21    1
    18     1     2    1
    19     2     3    1
    20     3     4    1
    21     4    14    1
    22    14    15    1
    23    15    16    1
    24    16    17    1
    25    17    18    1
    26    18    19    1
    27     4     5    1
    28     5     6    1
    29     6     7    1
    30     7     8   ar
    31     8     9   ar
    32     9    10   ar
    33    10    11    1
    34    10    12   ar
    35    12    13   ar
    36    31    25   ar
    37    37    32   ar
    38     6     1    1
    39    13     7   ar
    40    19    14    1
    41    22    23    1
@<TRIPOS>MOLECULE
*****
 37 41 0 0 0
SMALL
GASTEIGER

@<TRIPOS>ATOM
      1 C         141.9672  139.8336  157.8652 C.3     1  UNL1        0.0806
      2 C         141.6855  139.3564  156.4712 C.3     1  UNL1        0.0108
      3 C         141.8731  137.9099  156.1215 C.3     1  UNL1        0.0165
      4 C         142.3425  136.9405  157.1656 C.3     1  UNL1        0.0580
      5 C         142.6242  137.4178  158.5595 C.3     1  UNL1        0.0208
      6 C         142.4365  138.8643  158.9092 C.3     1  UNL1        0.0323
      7 C         142.7182  139.3415  160.3032 C.ar    1  UNL1       -0.0220
      8 C         144.1084  139.7521  160.6887 C.ar    1  UNL1       -0.0038
      9 C         144.3901  140.2293  162.0826 C.ar    1  UNL1        0.0064
     10 C         143.2815  140.2959  163.0909 C.ar    1  UNL1        0.0345
     11 BR        143.5633  140.7731  164.4849 Br      1  UNL1       -0.0490
     12 C         141.8913  139.8853  162.7054 C.ar    1  UNL1        0.0064
     13 C         141.6097  139.4081  161.3115 C.ar    1  UNL1       -0.0038
     14 N         142.5301  135.4940  156.8159 N.3     1  UNL1       -0.2697
     15 C         143.4886  134.6503  157.6030 C.3     1  UNL1        0.1046
     16 C         143.6762  133.2037  157.2533 C.3     1  UNL1        0.1595
     17 O         142.9054  132.6009  156.1163 O.3     1  UNL1       -0.3508
     18 C         141.9470  133.4447  155.3292 C.3     1  UNL1        0.1595
     19 C         141.7594  134.8912  155.6790 C.3     1  UNL1        0.1046
     20 O         142.9080  142.2501  158.0254 O.2     1  UNL1       -0.2751
     21 C         141.7796  141.2801  158.2149 C.2     1  UNL1        0.2228
     22 N         140.4635  141.7567  158.7542 N.am    1  UNL1       -0.2962
     23 H         139.7229  141.1202  158.8786 H       1  UNL1        0.1501
     24 C         140.2759  143.2033  159.1040 C.3     1  UNL1        0.1534
     25 C         139.9234  144.1940  158.0342 C.ar    1  UNL1        0.0028
     26 C         139.1269  143.7572  156.8405 C.ar    1  UNL1       -0.0014
     27 C         138.7745  144.7479  155.7708 C.ar    1  UNL1        0.0111
     28 C         139.2185  146.1753  155.8947 C.ar    1  UNL1        0.0577
     29 CL        138.8660  147.1660  154.8249 Cl      1  UNL1       -0.0822
     30 C         140.0150  146.6120  157.0884 C.ar    1  UNL1        0.0111
     31 C         140.3674  145.6214  158.1581 C.ar    1  UNL1       -0.0014
     32 C         140.4407  143.6591  160.5234 C.ar    1  UNL1        0.1611
     33 N         139.3034  144.3339  161.2313 N.ar    1  UNL1       -0.2271
     34 C         139.4683  144.7898  162.6509 C.ar    1  UNL1        0.1019
     35 C         140.7704  144.5709  163.3625 C.ar    1  UNL1        0.0413
     36 C         141.9077  143.8961  162.6546 C.ar    1  UNL1        0.1019
     37 N         141.7429  143.4402  161.2351 N.ar    1  UNL1       -0.2271
@<TRIPOS>BOND
     1    20    21    2
     2    21    22   am
     3    22    24    1
     4    24    25    1
     5    25    26   ar
     6    26    27   ar
     7    27    28   ar
     8    28    29    1
     9    28    30   ar
    10    30    31   ar
    11    24    32    1
    12    32    33   ar
    13    33    34   ar
    14    34    35   ar
    15    35    36   ar
    16    36    37   ar
    17     1    21    1
    18     1     2    1
    19     2     3    1
    20     3     4    1
    21     4    14    1
    22    14    15    1
    23    15    16    1
    24    16    17    1
    25    17    18    1
    26    18    19    1
    27     4     5    1
    28     5     6    1
    29     6     7    1
    30     7     8   ar
    31     8     9   ar
    32     9    10   ar
    33    10    11    1
    34    10    12   ar
    35    12    13   ar
    36    31    25   ar
    37    37    32   ar
    38     6     1    1
    39    13     7   ar
    40    19    14    1
    41    22    23    1
@<TRIPOS>MOLECULE
*****
 37 41 0 0 0
SMALL
GASTEIGER

@<TRIPOS>ATOM
      1 C         145.2230  142.3622  157.9860 C.3     1  UNL1        0.0806
      2 C         146.5819  142.9891  158.0884 C.3     1  UNL1        0.0108
      3 C         147.5961  142.7620  157.0068 C.3     1  UNL1        0.0165
      4 C         147.2514  141.9079  155.8228 C.3     1  UNL1        0.0580
      5 C         145.8925  141.2810  155.7204 C.3     1  UNL1        0.0208
      6 C         144.8784  141.5082  156.8021 C.3     1  UNL1        0.0323
      7 C         143.5195  140.8812  156.6997 C.ar    1  UNL1       -0.0220
      8 C         143.2851  139.5050  157.2485 C.ar    1  UNL1       -0.0038
      9 C         141.9263  138.8782  157.1461 C.ar    1  UNL1        0.0064
     10 C         140.8018  139.6274  156.4949 C.ar    1  UNL1        0.0345
     11 BR        139.4429  139.0005  156.3925 Br      1  UNL1       -0.0490
     12 C         141.0361  141.0036  155.9461 C.ar    1  UNL1        0.0064
     13 C         142.3950  141.6305  156.0485 C.ar    1  UNL1       -0.0038
     14 N         148.2655  141.6808  154.7412 N.3     1  UNL1       -0.2697
     15 C         147.8318  141.6243  153.3063 C.3     1  UNL1        0.1046
     16 C         148.8460  141.3972  152.2247 C.3     1  UNL1        0.1595
     17 O         150.2938  141.2266  152.5779 O.3     1  UNL1       -0.3508
     18 C         150.7274  141.2831  154.0127 C.3     1  UNL1        0.1595
     19 C         149.7133  141.5102  155.0943 C.3     1  UNL1        0.1046
     20 O         143.3210  143.7975  159.0216 O.2     1  UNL1       -0.2751
     21 C         144.2089  142.5893  159.0676 C.2     1  UNL1        0.2228
     22 N         144.0826  141.6083  160.1953 N.am    1  UNL1       -0.2962
     23 H         144.6653  140.8154  160.2255 H       1  UNL1        0.1501
     24 C         143.0684  141.8354  161.2769 C.3     1  UNL1        0.1534
     25 C         141.6984  141.2360  161.1583 C.ar    1  UNL1        0.0028
     26 C         140.9258  141.3778  159.8805 C.ar    1  UNL1       -0.0014
     27 C         139.5559  140.7784  159.7620 C.ar    1  UNL1        0.0111
     28 C         138.9586  140.0373  160.9213 C.ar    1  UNL1        0.0577
     29 CL        137.5886  139.4379  160.8027 Cl      1  UNL1       -0.0822
     30 C         139.7312  139.8956  162.1991 C.ar    1  UNL1        0.0111
     31 C         141.1011  140.4950  162.3177 C.ar    1  UNL1       -0.0014
     32 C         143.4242  142.6619  162.4770 C.ar    1  UNL1        0.1611
     33 N         144.0233  142.0083  163.6869 N.ar    1  UNL1       -0.2271
     34 C         144.3791  142.8348  164.8871 C.ar    1  UNL1        0.1019
     35 C         144.1357  144.3148  164.8774 C.ar    1  UNL1        0.0413
     36 C         143.5365  144.9685  163.6675 C.ar    1  UNL1        0.1019
     37 N         143.1807  144.1420  162.4674 N.ar    1  UNL1       -0.2271
@<TRIPOS>BOND
     1    20    21    2
     2    21    22   am
     3    22    24    1
     4    24    25    1
     5    25    26   ar
     6    26    27   ar
     7    27    28   ar
     8    28    29    1
     9    28    30   ar
    10    30    31   ar
    11    24    32    1
    12    32    33   ar
    13    33    34   ar
    14    34    35   ar
    15    35    36   ar
    16    36    37   ar
    17     1    21    1
    18     1     2    1
    19     2     3    1
    20     3     4    1
    21     4    14    1
    22    14    15    1
    23    15    16    1
    24    16    17    1
    25    17    18    1
    26    18    19    1
    27     4     5    1
    28     5     6    1
    29     6     7    1
    30     7     8   ar
    31     8     9   ar
    32     9    10   ar
    33    10    11    1
    34    10    12   ar
    35    12    13   ar
    36    31    25   ar
    37    37    32   ar
    38     6     1    1
    39    13     7   ar
    40    19    14    1
    41    22    23    1
