@<TRIPOS>MOLECULE
*****
 27 29 0 0 0
SMALL
GASTEIGER

@<TRIPOS>ATOM
      1 C         142.0711  140.1332  167.1855 C.3     1  UNL1        0.1467
      2 C         145.5174  141.8615  162.9455 C.3     1  UNL1        0.0896
      3 N         144.6320  141.6482  164.1374 N.3     1  UNL1       -0.2715
      4 C         144.3401  142.7875  165.0684 C.3     1  UNL1        0.0725
      5 C         143.4547  142.5741  166.2602 C.3     1  UNL1        0.0238
      6 C         142.8612  141.2215  166.5211 C.3     1  UNL1        0.0489
      7 C         143.1532  140.0822  165.5902 C.3     1  UNL1        0.0238
      8 C         144.0386  140.2955  164.3983 C.3     1  UNL1        0.0725
      9 C         142.2949  141.9829  167.6829 C.ar    1  UNL1       -0.0204
     10 C         143.1217  142.1932  168.9165 C.ar    1  UNL1       -0.0042
     11 C         142.5555  142.9546  170.0782 C.ar    1  UNL1       -0.0003
     12 C         141.1622  143.5056  170.0062 C.ar    1  UNL1       -0.0000
     13 C         140.3352  143.2953  168.7726 C.ar    1  UNL1       -0.0003
     14 C         140.9016  142.5339  167.6108 C.ar    1  UNL1       -0.0042
     15 O         141.1957  139.2337  166.3642 O.3     1  UNL1       -0.3470
     16 C         139.7117  139.4512  166.3379 C.3     1  UNL1        0.1875
     17 C         139.0362  139.8606  165.0627 C.ar    1  UNL1        0.0897
     18 C         138.6658  141.2967  164.8379 C.ar    1  UNL1        0.0212
     19 C         137.9903  141.7061  163.5627 C.ar    1  UNL1        0.0750
     20 C         137.6852  140.6796  162.5124 C.ar    1  UNL1        0.0346
     21 C         138.0557  139.2435  162.7373 C.ar    1  UNL1        0.1380
     22 CL        137.7506  138.2170  161.6870 Cl      1  UNL1       -0.0614
     23 N         138.7312  138.8340  164.0125 N.ar    1  UNL1       -0.2358
     24 C         137.6199  143.1422  163.3377 C.3     1  UNL1        0.4187
     25 F         137.2494  144.5782  163.1127 F       1  UNL1       -0.1659
     26 F         137.5973  142.9043  161.8568 F       1  UNL1       -0.1659
     27 F         137.6424  143.3799  164.8186 F       1  UNL1       -0.1659
@<TRIPOS>BOND
     1     2     3    1
     2     3     4    1
     3     4     5    1
     4     5     6    1
     5     6     1    1
     6     1    15    1
     7    15    16    1
     8    16    17    1
     9    17    18   ar
    10    18    19   ar
    11    19    24    1
    12    24    25    1
    13    24    26    1
    14    24    27    1
    15    19    20   ar
    16    20    21   ar
    17    21    22    1
    18    21    23   ar
    19     6     9    1
    20     9    10   ar
    21    10    11   ar
    22    11    12   ar
    23    12    13   ar
    24    13    14   ar
    25     6     7    1
    26     7     8    1
    27     8     3    1
    28    23    17   ar
    29    14     9   ar
@<TRIPOS>MOLECULE
*****
 27 29 0 0 0
SMALL
GASTEIGER

@<TRIPOS>ATOM
      1 C         141.7251  142.5589  165.6718 C.3     1  UNL1        0.1467
      2 C         140.7868  141.8008  171.2742 C.3     1  UNL1        0.0896
      3 N         141.2039  141.8145  169.8334 N.3     1  UNL1       -0.2715
      4 C         142.2641  140.8698  169.3504 C.3     1  UNL1        0.0725
      5 C         142.6811  140.8835  167.9096 C.3     1  UNL1        0.0238
      6 C         142.0379  141.8420  166.9518 C.3     1  UNL1        0.0489
      7 C         140.9776  142.7868  167.4348 C.3     1  UNL1        0.0238
      8 C         140.5606  142.7730  168.8756 C.3     1  UNL1        0.0725
      9 C         142.9895  141.1462  166.0243 C.ar    1  UNL1       -0.0204
     10 C         143.0107  139.6479  165.9570 C.ar    1  UNL1       -0.0042
     11 C         143.9623  138.9521  165.0296 C.ar    1  UNL1       -0.0003
     12 C         144.8928  139.7546  164.1693 C.ar    1  UNL1       -0.0000
     13 C         144.8717  141.2530  164.2365 C.ar    1  UNL1       -0.0003
     14 C         143.9201  141.9488  165.1640 C.ar    1  UNL1       -0.0042
     15 O         140.3010  142.8603  165.3097 O.3     1  UNL1       -0.3470
     16 C         139.5795  141.9943  164.3200 C.3     1  UNL1        0.1875
     17 C         139.5051  140.5116  164.5349 C.ar    1  UNL1        0.0897
     18 C         138.5979  139.9513  165.5899 C.ar    1  UNL1        0.0212
     19 C         138.5236  138.4686  165.8047 C.ar    1  UNL1        0.0750
     20 C         139.3564  137.5463  164.9647 C.ar    1  UNL1        0.0346
     21 C         140.2636  138.1067  163.9096 C.ar    1  UNL1        0.1380
     22 CL        141.0964  137.1844  163.0696 Cl      1  UNL1       -0.0614
     23 N         140.3380  139.5893  163.6948 N.ar    1  UNL1       -0.2358
     24 C         137.6164  137.9081  166.8598 C.3     1  UNL1        0.4187
     25 F         136.7093  137.3478  167.9147 F       1  UNL1       -0.1659
     26 F         137.5554  139.2529  167.5215 F       1  UNL1       -0.1659
     27 F         137.6775  136.5634  166.1979 F       1  UNL1       -0.1659
@<TRIPOS>BOND
     1     2     3    1
     2     3     4    1
     3     4     5    1
     4     5     6    1
     5     6     1    1
     6     1    15    1
     7    15    16    1
     8    16    17    1
     9    17    18   ar
    10    18    19   ar
    11    19    24    1
    12    24    25    1
    13    24    26    1
    14    24    27    1
    15    19    20   ar
    16    20    21   ar
    17    21    22    1
    18    21    23   ar
    19     6     9    1
    20     9    10   ar
    21    10    11   ar
    22    11    12   ar
    23    12    13   ar
    24    13    14   ar
    25     6     7    1
    26     7     8    1
    27     8     3    1
    28    23    17   ar
    29    14     9   ar
@<TRIPOS>MOLECULE
*****
 27 29 0 0 0
SMALL
GASTEIGER

@<TRIPOS>ATOM
      1 C         143.5445  142.4926  166.1235 C.3     1  UNL1        0.1467
      2 C         141.6314  137.6583  163.7128 C.3     1  UNL1        0.0896
      3 N         141.9607  138.8761  164.5241 N.3     1  UNL1       -0.2715
      4 C         141.2192  139.1514  165.7986 C.3     1  UNL1        0.0725
      5 C         141.5485  140.3693  166.6099 C.3     1  UNL1        0.0238
      6 C         142.6195  141.3119  166.1468 C.3     1  UNL1        0.0489
      7 C         143.3610  141.0366  164.8724 C.3     1  UNL1        0.0238
      8 C         143.0317  139.8188  164.0610 C.3     1  UNL1        0.0725
      9 C         142.1991  141.9972  167.4132 C.ar    1  UNL1       -0.0204
     10 C         140.8004  142.5202  167.5543 C.ar    1  UNL1       -0.0042
     11 C         140.3799  143.2055  168.8206 C.ar    1  UNL1       -0.0003
     12 C         141.3584  143.3678  169.9459 C.ar    1  UNL1       -0.0000
     13 C         142.7572  142.8448  169.8049 C.ar    1  UNL1       -0.0003
     14 C         143.1775  142.1595  168.5385 C.ar    1  UNL1       -0.0042
     15 O         144.0796  143.0004  164.8175 O.3     1  UNL1       -0.3470
     16 C         143.6873  144.3618  164.3247 C.3     1  UNL1        0.1875
     17 C         142.3891  144.5508  163.5974 C.ar    1  UNL1        0.0897
     18 C         141.0910  144.4576  164.3433 C.ar    1  UNL1        0.0212
     19 C         139.7929  144.6466  163.6159 C.ar    1  UNL1        0.0750
     20 C         139.7928  144.9287  162.1427 C.ar    1  UNL1        0.0346
     21 C         141.0909  145.0219  161.3967 C.ar    1  UNL1        0.1380
     22 CL        141.0907  145.3040  159.9236 Cl      1  UNL1       -0.0614
     23 N         142.3890  144.8329  162.1241 N.ar    1  UNL1       -0.2358
     24 C         138.4947  144.5535  164.3617 C.3     1  UNL1        0.4187
     25 F         137.1967  144.4604  165.1076 F       1  UNL1       -0.1659
     26 F         139.2274  144.7300  165.6587 F       1  UNL1       -0.1659
     27 F         137.7622  144.3770  163.0647 F       1  UNL1       -0.1659
@<TRIPOS>BOND
     1     2     3    1
     2     3     4    1
     3     4     5    1
     4     5     6    1
     5     6     1    1
     6     1    15    1
     7    15    16    1
     8    16    17    1
     9    17    18   ar
    10    18    19   ar
    11    19    24    1
    12    24    25    1
    13    24    26    1
    14    24    27    1
    15    19    20   ar
    16    20    21   ar
    17    21    22    1
    18    21    23   ar
    19     6     9    1
    20     9    10   ar
    21    10    11   ar
    22    11    12   ar
    23    12    13   ar
    24    13    14   ar
    25     6     7    1
    26     7     8    1
    27     8     3    1
    28    23    17   ar
    29    14     9   ar
@<TRIPOS>MOLECULE
*****
 27 29 0 0 0
SMALL
GASTEIGER

@<TRIPOS>ATOM
      1 C         142.0527  142.7634  164.6570 C.3     1  UNL1        0.1467
      2 C         142.2380  142.0648  170.3420 C.3     1  UNL1        0.0896
      3 N         141.9482  142.3148  168.8917 N.3     1  UNL1       -0.2715
      4 C         140.5827  142.7674  168.4669 C.3     1  UNL1        0.0725
      5 C         140.2929  143.0174  167.0165 C.3     1  UNL1        0.0238
      6 C         141.3686  142.8150  165.9910 C.3     1  UNL1        0.0489
      7 C         142.7341  142.3624  166.4158 C.3     1  UNL1        0.0238
      8 C         143.0239  142.1123  167.8662 C.3     1  UNL1        0.0725
      9 C         140.2406  143.2496  165.1029 C.ar    1  UNL1       -0.0204
     10 C         140.4392  144.3801  164.1372 C.ar    1  UNL1       -0.0042
     11 C         139.3112  144.8148  163.2491 C.ar    1  UNL1       -0.0003
     12 C         137.9847  144.1189  163.3267 C.ar    1  UNL1       -0.0000
     13 C         137.7860  142.9885  164.2924 C.ar    1  UNL1       -0.0003
     14 C         138.9140  142.5538  165.1805 C.ar    1  UNL1       -0.0042
     15 O         142.9739  141.6257  164.3300 O.3     1  UNL1       -0.3470
     16 C         142.5140  140.5262  163.4192 C.3     1  UNL1        0.1875
     17 C         141.0654  140.1385  163.3837 C.ar    1  UNL1        0.0897
     18 C         140.4650  139.3753  164.5270 C.ar    1  UNL1        0.0212
     19 C         139.0164  138.9876  164.4914 C.ar    1  UNL1        0.0750
     20 C         138.1683  139.3630  163.3126 C.ar    1  UNL1        0.0346
     21 C         138.7687  140.1262  162.1693 C.ar    1  UNL1        0.1380
     22 CL        137.9205  140.5016  160.9905 Cl      1  UNL1       -0.0614
     23 N         140.2172  140.5139  162.2048 N.ar    1  UNL1       -0.2358
     24 C         138.4159  138.2244  165.6347 C.3     1  UNL1        0.4187
     25 F         137.8154  137.4614  166.7779 F       1  UNL1       -0.1659
     26 F         137.6527  139.4472  166.0500 F       1  UNL1       -0.1659
     27 F         139.1792  137.0018  165.2194 F       1  UNL1       -0.1659
@<TRIPOS>BOND
     1     2     3    1
     2     3     4    1
     3     4     5    1
     4     5     6    1
     5     6     1    1
     6     1    15    1
     7    15    16    1
     8    16    17    1
     9    17    18   ar
    10    18    19   ar
    11    19    24    1
    12    24    25    1
    13    24    26    1
    14    24    27    1
    15    19    20   ar
    16    20    21   ar
    17    21    22    1
    18    21    23   ar
    19     6     9    1
    20     9    10   ar
    21    10    11   ar
    22    11    12   ar
    23    12    13   ar
    24    13    14   ar
    25     6     7    1
    26     7     8    1
    27     8     3    1
    28    23    17   ar
    29    14     9   ar
@<TRIPOS>MOLECULE
*****
 27 29 0 0 0
SMALL
GASTEIGER

@<TRIPOS>ATOM
      1 C         139.6877  143.4105  166.0717 C.3     1  UNL1        0.1467
      2 C         144.7450  142.7011  163.4712 C.3     1  UNL1        0.0896
      3 N         143.5152  142.7325  164.3294 N.3     1  UNL1       -0.2715
      4 C         143.4739  141.9520  165.6096 C.3     1  UNL1        0.0725
      5 C         142.2441  141.9834  166.4679 C.3     1  UNL1        0.0238
      6 C         141.0556  142.7954  166.0459 C.3     1  UNL1        0.0489
      7 C         141.0969  143.5759  164.7657 C.3     1  UNL1        0.0238
      8 C         142.3267  143.5445  163.9075 C.3     1  UNL1        0.0725
      9 C         140.5392  142.2284  167.3351 C.ar    1  UNL1       -0.0204
     10 C         140.0184  140.8225  167.3809 C.ar    1  UNL1       -0.0042
     11 C         139.5021  140.2554  168.6699 C.ar    1  UNL1       -0.0003
     12 C         139.5066  141.0944  169.9134 C.ar    1  UNL1       -0.0000
     13 C         140.0274  142.5004  169.8677 C.ar    1  UNL1       -0.0003
     14 C         140.5437  143.0674  168.5785 C.ar    1  UNL1       -0.0042
     15 O         139.0136  143.7940  164.7878 O.3     1  UNL1       -0.3470
     16 C         137.7753  143.0717  164.3460 C.3     1  UNL1        0.1875
     17 C         137.8850  141.7262  163.6920 C.ar    1  UNL1        0.0897
     18 C         138.2515  140.5228  164.5090 C.ar    1  UNL1        0.0212
     19 C         138.3611  139.1774  163.8549 C.ar    1  UNL1        0.0750
     20 C         138.1043  139.0353  162.3840 C.ar    1  UNL1        0.0346
     21 C         137.7378  140.2387  161.5669 C.ar    1  UNL1        0.1380
     22 CL        137.4810  140.0967  160.0959 Cl      1  UNL1       -0.0614
     23 N         137.6282  141.5842  162.2209 N.ar    1  UNL1       -0.2358
     24 C         138.7276  137.9739  164.6719 C.3     1  UNL1        0.4187
     25 F         139.0940  136.7704  165.4888 F       1  UNL1       -0.1659
     26 F         139.3831  137.3585  163.4712 F       1  UNL1       -0.1659
     27 F         138.0720  138.5893  165.8725 F       1  UNL1       -0.1659
@<TRIPOS>BOND
     1     2     3    1
     2     3     4    1
     3     4     5    1
     4     5     6    1
     5     6     1    1
     6     1    15    1
     7    15    16    1
     8    16    17    1
     9    17    18   ar
    10    18    19   ar
    11    19    24    1
    12    24    25    1
    13    24    26    1
    14    24    27    1
    15    19    20   ar
    16    20    21   ar
    17    21    22    1
    18    21    23   ar
    19     6     9    1
    20     9    10   ar
    21    10    11   ar
    22    11    12   ar
    23    12    13   ar
    24    13    14   ar
    25     6     7    1
    26     7     8    1
    27     8     3    1
    28    23    17   ar
    29    14     9   ar
@<TRIPOS>MOLECULE
*****
 27 29 0 0 0
SMALL
GASTEIGER

@<TRIPOS>ATOM
      1 C         140.4901  137.8488  162.8548 C.3     1  UNL1        0.1467
      2 C         138.1961  140.3643  158.2448 C.3     1  UNL1        0.0896
      3 N         138.6026  139.8089  159.5776 N.3     1  UNL1       -0.2715
      4 C         137.7777  140.1024  160.7955 C.3     1  UNL1        0.0725
      5 C         138.1842  139.5470  162.1283 C.3     1  UNL1        0.0238
      6 C         139.4156  138.6982  162.2432 C.3     1  UNL1        0.0489
      7 C         140.2404  138.4047  161.0252 C.3     1  UNL1        0.0238
      8 C         139.8339  138.9601  159.6924 C.3     1  UNL1        0.0725
      9 C         138.9638  138.6967  163.6736 C.ar    1  UNL1       -0.0204
     10 C         138.9185  137.4107  164.4444 C.ar    1  UNL1       -0.0042
     11 C         138.4668  137.4091  165.8747 C.ar    1  UNL1       -0.0003
     12 C         138.0604  138.6936  166.5342 C.ar    1  UNL1       -0.0000
     13 C         138.1057  139.9796  165.7635 C.ar    1  UNL1       -0.0003
     14 C         138.5574  139.9811  164.3331 C.ar    1  UNL1       -0.0042
     15 O         141.9337  138.1844  162.6239 O.3     1  UNL1       -0.3470
     16 C         142.7969  138.6142  163.7729 C.3     1  UNL1        0.1875
     17 C         142.2858  139.6227  164.7586 C.ar    1  UNL1        0.0897
     18 C         142.0089  139.2136  166.1750 C.ar    1  UNL1        0.0212
     19 C         141.4978  140.2222  167.1606 C.ar    1  UNL1        0.0750
     20 C         141.2636  141.6398  166.7300 C.ar    1  UNL1        0.0346
     21 C         141.5405  142.0489  165.3137 C.ar    1  UNL1        0.1380
     22 CL        141.3063  143.4666  164.8831 Cl      1  UNL1       -0.0614
     23 N         142.0516  141.0404  164.3280 N.ar    1  UNL1       -0.2358
     24 C         141.2208  139.8131  168.5770 C.3     1  UNL1        0.4187
     25 F         140.9440  139.4041  169.9933 F       1  UNL1       -0.1659
     26 F         142.5021  139.0335  168.6023 F       1  UNL1       -0.1659
     27 F         139.9396  140.5928  168.5516 F       1  UNL1       -0.1659
@<TRIPOS>BOND
     1     2     3    1
     2     3     4    1
     3     4     5    1
     4     5     6    1
     5     6     1    1
     6     1    15    1
     7    15    16    1
     8    16    17    1
     9    17    18   ar
    10    18    19   ar
    11    19    24    1
    12    24    25    1
    13    24    26    1
    14    24    27    1
    15    19    20   ar
    16    20    21   ar
    17    21    22    1
    18    21    23   ar
    19     6     9    1
    20     9    10   ar
    21    10    11   ar
    22    11    12   ar
    23    12    13   ar
    24    13    14   ar
    25     6     7    1
    26     7     8    1
    27     8     3    1
    28    23    17   ar
    29    14     9   ar
@<TRIPOS>MOLECULE
*****
 27 29 0 0 0
SMALL
GASTEIGER

@<TRIPOS>ATOM
      1 C         142.5031  139.6359  165.8374 C.3     1  UNL1        0.1467
      2 C         141.3896  141.6192  171.0975 C.3     1  UNL1        0.0896
      3 N         141.7989  141.3215  169.6855 N.3     1  UNL1       -0.2715
      4 C         142.5801  142.3341  168.9017 C.3     1  UNL1        0.0725
      5 C         142.9894  142.0364  167.4897 C.3     1  UNL1        0.0238
      6 C         142.6175  140.7261  166.8614 C.3     1  UNL1        0.0489
      7 C         141.8363  139.7135  167.6451 C.3     1  UNL1        0.0238
      8 C         141.4270  140.0112  169.0572 C.3     1  UNL1        0.0725
      9 C         143.3590  141.3601  165.7220 C.ar    1  UNL1       -0.0204
     10 C         143.3209  142.8483  165.5379 C.ar    1  UNL1       -0.0042
     11 C         144.0623  143.4823  164.3985 C.ar    1  UNL1       -0.0003
     12 C         144.8419  142.6282  163.4432 C.ar    1  UNL1       -0.0000
     13 C         144.8801  141.1400  163.6272 C.ar    1  UNL1       -0.0003
     14 C         144.1386  140.5060  164.7667 C.ar    1  UNL1       -0.0042
     15 O         141.1585  139.0646  165.4972 O.3     1  UNL1       -0.3470
     16 C         140.4303  139.5375  164.2740 C.3     1  UNL1        0.1875
     17 C         140.4420  140.9926  163.9099 C.ar    1  UNL1        0.0897
     18 C         139.7546  141.9920  164.7924 C.ar    1  UNL1        0.0212
     19 C         139.7663  143.4471  164.4283 C.ar    1  UNL1        0.0750
     20 C         140.4652  143.9027  163.1817 C.ar    1  UNL1        0.0346
     21 C         141.1525  142.9033  162.2993 C.ar    1  UNL1        0.1380
     22 CL        141.8514  143.3590  161.0528 Cl      1  UNL1       -0.0614
     23 N         141.1409  141.4482  162.6634 N.ar    1  UNL1       -0.2358
     24 C         139.0789  144.4466  165.3107 C.3     1  UNL1        0.4187
     25 F         138.3916  145.4461  166.1930 F       1  UNL1       -0.1659
     26 F         138.4366  145.0683  164.1061 F       1  UNL1       -0.1659
     27 F         139.7213  143.8249  166.5152 F       1  UNL1       -0.1659
@<TRIPOS>BOND
     1     2     3    1
     2     3     4    1
     3     4     5    1
     4     5     6    1
     5     6     1    1
     6     1    15    1
     7    15    16    1
     8    16    17    1
     9    17    18   ar
    10    18    19   ar
    11    19    24    1
    12    24    25    1
    13    24    26    1
    14    24    27    1
    15    19    20   ar
    16    20    21   ar
    17    21    22    1
    18    21    23   ar
    19     6     9    1
    20     9    10   ar
    21    10    11   ar
    22    11    12   ar
    23    12    13   ar
    24    13    14   ar
    25     6     7    1
    26     7     8    1
    27     8     3    1
    28    23    17   ar
    29    14     9   ar
@<TRIPOS>MOLECULE
*****
 27 29 0 0 0
SMALL
GASTEIGER

@<TRIPOS>ATOM
      1 C         139.4318  139.2927  166.2016 C.3     1  UNL1        0.1467
      2 C         138.7274  144.5655  164.0701 C.3     1  UNL1        0.0896
      3 N         139.0520  143.2992  164.8056 N.3     1  UNL1       -0.2715
      4 C         139.9123  143.3445  166.0335 C.3     1  UNL1        0.0725
      5 C         140.2369  142.0781  166.7690 C.3     1  UNL1        0.0238
      6 C         139.7012  140.7664  166.2766 C.3     1  UNL1        0.0489
      7 C         138.8409  140.7211  165.0487 C.3     1  UNL1        0.0238
      8 C         138.5163  141.9875  164.3132 C.3     1  UNL1        0.0725
      9 C         140.4679  140.2999  167.4785 C.ar    1  UNL1       -0.0204
     10 C         141.8831  139.8260  167.3279 C.ar    1  UNL1       -0.0042
     11 C         142.6498  139.3595  168.5297 C.ar    1  UNL1       -0.0003
     12 C         142.0014  139.3669  169.8822 C.ar    1  UNL1       -0.0000
     13 C         140.5862  139.8408  170.0330 C.ar    1  UNL1       -0.0003
     14 C         139.8195  140.3073  168.8311 C.ar    1  UNL1       -0.0042
     15 O         139.4618  138.5913  164.8760 O.3     1  UNL1       -0.3470
     16 C         140.5557  137.6115  164.5706 C.3     1  UNL1        0.1875
     17 C         141.6763  138.0006  163.6525 C.ar    1  UNL1        0.0897
     18 C         142.7649  138.9096  164.1411 C.ar    1  UNL1        0.0212
     19 C         143.8854  139.2987  163.2229 C.ar    1  UNL1        0.0750
     20 C         143.9174  138.7788  161.8163 C.ar    1  UNL1        0.0346
     21 C         142.8288  137.8698  161.3277 C.ar    1  UNL1        0.1380
     22 CL        142.8608  137.3500  159.9211 Cl      1  UNL1       -0.0614
     23 N         141.7083  137.4807  162.2458 N.ar    1  UNL1       -0.2358
     24 C         144.9741  140.2077  163.7115 C.3     1  UNL1        0.4187
     25 F         146.0627  141.1167  164.1999 F       1  UNL1       -0.1659
     26 F         144.5227  141.2657  162.7486 F       1  UNL1       -0.1659
     27 F         145.4254  139.1498  164.6743 F       1  UNL1       -0.1659
@<TRIPOS>BOND
     1     2     3    1
     2     3     4    1
     3     4     5    1
     4     5     6    1
     5     6     1    1
     6     1    15    1
     7    15    16    1
     8    16    17    1
     9    17    18   ar
    10    18    19   ar
    11    19    24    1
    12    24    25    1
    13    24    26    1
    14    24    27    1
    15    19    20   ar
    16    20    21   ar
    17    21    22    1
    18    21    23   ar
    19     6     9    1
    20     9    10   ar
    21    10    11   ar
    22    11    12   ar
    23    12    13   ar
    24    13    14   ar
    25     6     7    1
    26     7     8    1
    27     8     3    1
    28    23    17   ar
    29    14     9   ar
@<TRIPOS>MOLECULE
*****
 27 29 0 0 0
SMALL
GASTEIGER

@<TRIPOS>ATOM
      1 C         142.4723  140.2527  165.9171 C.3     1  UNL1        0.1467
      2 C         141.8504  141.9920  171.3420 C.3     1  UNL1        0.0896
      3 N         141.7858  141.4296  169.9529 N.3     1  UNL1       -0.2715
      4 C         140.5877  140.6382  169.5192 C.3     1  UNL1        0.0725
      5 C         140.5230  140.0758  168.1301 C.3     1  UNL1        0.0238
      6 C         141.6565  140.3048  167.1748 C.3     1  UNL1        0.0489
      7 C         142.8546  141.0962  167.6085 C.3     1  UNL1        0.0238
      8 C         142.9193  141.6586  168.9976 C.3     1  UNL1        0.0725
      9 C         140.7417  139.4953  166.3042 C.ar    1  UNL1       -0.0204
     10 C         141.3125  138.5052  165.3328 C.ar    1  UNL1       -0.0042
     11 C         140.3978  137.6957  164.4622 C.ar    1  UNL1       -0.0003
     12 C         138.9121  137.8763  164.5632 C.ar    1  UNL1       -0.0000
     13 C         138.3412  138.8664  165.5347 C.ar    1  UNL1       -0.0003
     14 C         139.2560  139.6759  166.4052 C.ar    1  UNL1       -0.0042
     15 O         143.2242  141.4675  165.4600 O.3     1  UNL1       -0.3470
     16 C         142.6547  142.3400  164.3808 C.3     1  UNL1        0.1875
     17 C         141.1735  142.5623  164.2998 C.ar    1  UNL1        0.0897
     18 C         140.3222  141.6478  163.4698 C.ar    1  UNL1        0.0212
     19 C         138.8410  141.8701  163.3888 C.ar    1  UNL1        0.0750
     20 C         138.2111  143.0069  164.1377 C.ar    1  UNL1        0.0346
     21 C         139.0624  143.9215  164.9677 C.ar    1  UNL1        0.1380
     22 CL        138.4326  145.0582  165.7166 Cl      1  UNL1       -0.0614
     23 N         140.5437  143.6991  165.0488 N.ar    1  UNL1       -0.2358
     24 C         137.9895  140.9556  162.5588 C.3     1  UNL1        0.4187
     25 F         137.1382  140.0412  161.7288 F       1  UNL1       -0.1659
     26 F         139.2224  140.2666  162.0534 F       1  UNL1       -0.1659
     27 F         136.7568  141.6447  163.0641 F       1  UNL1       -0.1659
@<TRIPOS>BOND
     1     2     3    1
     2     3     4    1
     3     4     5    1
     4     5     6    1
     5     6     1    1
     6     1    15    1
     7    15    16    1
     8    16    17    1
     9    17    18   ar
    10    18    19   ar
    11    19    24    1
    12    24    25    1
    13    24    26    1
    14    24    27    1
    15    19    20   ar
    16    20    21   ar
    17    21    22    1
    18    21    23   ar
    19     6     9    1
    20     9    10   ar
    21    10    11   ar
    22    11    12   ar
    23    12    13   ar
    24    13    14   ar
    25     6     7    1
    26     7     8    1
    27     8     3    1
    28    23    17   ar
    29    14     9   ar
