@<TRIPOS>MOLECULE
*****
 40 43 0 0 0
SMALL
GASTEIGER

@<TRIPOS>ATOM
      1 C         140.8571  141.6737  167.9950 C.3     1  UNL1        0.0705
      2 C         140.2384  141.7463  169.3595 C.3     1  UNL1        0.0082
      3 C         141.0683  142.1613  170.5382 C.3     1  UNL1        0.0005
      4 C         142.5169  142.5035  170.3523 C.3     1  UNL1        0.0005
      5 C         143.1355  142.4308  168.9877 C.3     1  UNL1        0.0095
      6 C         142.3057  142.0159  167.8091 C.3     1  UNL1        0.0840
      7 C         142.9244  141.9433  166.4446 C.2     1  UNL1        0.2261
      8 O         143.1289  143.1966  165.6461 O.2     1  UNL1       -0.2748
      9 N         143.3385  140.6174  165.8785 N.am    1  UNL1       -0.2814
     10 H         143.2043  139.7948  166.4026 H       1  UNL1        0.1549
     11 C         143.9572  140.5447  164.5140 C.ar    1  UNL1        0.0935
     12 C         145.1446  141.3300  164.0413 C.ar    1  UNL1        0.1364
     13 N         145.4183  140.9446  162.6177 N.ar    1  UNL1       -0.1662
     14 N         144.4001  139.9211  162.2106 N.ar    1  UNL1       -0.2430
     15 C         144.3021  139.2608  160.8673 C.3     1  UNL1        0.1539
     16 C         143.4971  139.6740  163.3825 C.ar    1  UNL1        0.1480
     17 C         142.3375  138.7231  163.4169 C.2     1  UNL1        0.2866
     18 O         141.9382  138.0737  164.7087 O.2     1  UNL1       -0.2664
     19 N         141.5773  138.4215  162.1594 N.am    1  UNL1       -0.1886
     20 H         141.8394  138.8477  161.3116 H       1  UNL1        0.1829
     21 O         140.4177  137.4706  162.1938 O.3     1  UNL1       -0.2712
     22 C         139.0251  137.9774  161.9620 C.3     1  UNL1        0.1173
     23 C         139.3726  138.2788  160.5343 C.3     1  UNL1        0.0321
     24 C         138.6776  137.6761  163.3897 C.3     1  UNL1        0.0321
     25 C         137.6325  138.4843  161.7301 C.3     1  UNL1        0.0321
     26 C         140.0272  141.2588  166.8164 C.2     1  UNL1        0.1731
     27 O         139.2362  139.9853  166.8672 O.2     1  UNL1       -0.2913
     28 C         139.9108  143.8342  163.1281 C.ar    1  UNL1        0.0194
     29 C         140.1779  142.3632  163.0075 C.ar    1  UNL1        0.0016
     30 C         140.2167  141.5047  164.2369 C.ar    1  UNL1        0.0029
     31 C         139.9884  142.1173  165.5870 C.ar    1  UNL1        0.0347
     32 C         139.7213  143.5884  165.7076 C.ar    1  UNL1        0.0029
     33 C         139.6825  144.4468  164.4782 C.ar    1  UNL1        0.0016
     34 C         140.6999  145.6167  158.2209 C.3     1  UNL1        0.0515
     35 C         140.2347  145.5121  159.6430 C.ar    1  UNL1        0.0535
     36 C         140.5327  144.3855  160.5875 C.ar    1  UNL1        0.0349
     37 C         139.8720  144.6928  161.8987 C.ar    1  UNL1        0.1018
     38 N         139.1657  146.0093  161.7646 N.ar    1  UNL1       -0.1730
     39 N         139.3899  146.5156  160.3705 N.ar    1  UNL1       -0.2798
     40 H         139.0433  147.3586  159.9984 H       1  UNL1        0.1886
@<TRIPOS>BOND
     1    34    35    1
     2    35    36   ar
     3    36    37   ar
     4    37    28    1
     5    28    29   ar
     6    29    30   ar
     7    30    31   ar
     8    31    26    1
     9    26    27    2
    10     1    26    1
    11     1     2    1
    12     2     3    1
    13     3     4    1
    14     4     5    1
    15     5     6    1
    16     6     7    1
    17     7     8    2
    18     7     9   am
    19     9    11    1
    20    11    12   ar
    21    12    13   ar
    22    13    14   ar
    23    14    15    1
    24    14    16   ar
    25    16    17    1
    26    17    18    2
    27    17    19   am
    28    19    21    1
    29    21    22    1
    30    22    23    1
    31    22    24    1
    32    22    25    1
    33    31    32   ar
    34    32    33   ar
    35    37    38   ar
    36    38    39   ar
    37    39    35   ar
    38    33    28   ar
    39     6     1    1
    40    16    11   ar
    41     9    10    1
    42    19    20    1
    43    39    40    1
@<TRIPOS>MOLECULE
*****
 40 43 0 0 0
SMALL
GASTEIGER

@<TRIPOS>ATOM
      1 C         139.8028  142.9911  161.8856 C.3     1  UNL1        0.0705
      2 C         139.0653  144.1495  162.4890 C.3     1  UNL1        0.0082
      3 C         139.3318  145.5434  162.0031 C.3     1  UNL1        0.0005
      4 C         140.3357  145.7788  160.9138 C.3     1  UNL1        0.0005
      5 C         141.0733  144.6204  160.3103 C.3     1  UNL1        0.0095
      6 C         140.8068  143.2266  160.7962 C.3     1  UNL1        0.0840
      7 C         141.5443  142.0681  160.1928 C.2     1  UNL1        0.2261
      8 O         142.4890  141.2607  161.0330 O.2     1  UNL1       -0.2748
      9 N         141.3373  141.7171  158.7493 N.am    1  UNL1       -0.2814
     10 H         140.7173  142.2470  158.1979 H       1  UNL1        0.1549
     11 C         142.0748  140.5586  158.1459 C.ar    1  UNL1        0.0935
     12 C         143.2206  140.6485  157.1820 C.ar    1  UNL1        0.1364
     13 N         143.6500  139.2524  156.8408 N.ar    1  UNL1       -0.1662
     14 N         142.7695  138.2996  157.5937 N.ar    1  UNL1       -0.2430
     15 C         142.8485  136.8024  157.5481 C.3     1  UNL1        0.1539
     16 C         141.7960  139.1069  158.4003 C.ar    1  UNL1        0.1480
     17 C         140.7306  138.5587  159.3028 C.2     1  UNL1        0.2866
     18 O         139.3630  138.2690  158.7592 O.2     1  UNL1       -0.2664
     19 N         141.0330  138.3002  160.7492 N.am    1  UNL1       -0.1886
     20 H         141.9306  138.4904  161.1061 H       1  UNL1        0.1829
     21 O         139.9676  137.7520  161.6517 O.3     1  UNL1       -0.2712
     22 C         140.2435  137.5736  163.1153 C.3     1  UNL1        0.1173
     23 C         141.7162  137.6775  162.8503 C.3     1  UNL1        0.0321
     24 C         138.7707  137.4697  163.3803 C.3     1  UNL1        0.0321
     25 C         140.5194  137.3952  164.5788 C.3     1  UNL1        0.0321
     26 C         139.5364  141.5972  162.3715 C.2     1  UNL1        0.1731
     27 O         138.9154  140.5881  161.4516 O.2     1  UNL1       -0.2913
     28 C         140.6001  140.4427  166.5888 C.ar    1  UNL1        0.0194
     29 C         141.6815  140.8098  165.6163 C.ar    1  UNL1        0.0016
     30 C         141.3269  141.1946  164.2105 C.ar    1  UNL1        0.0029
     31 C         139.8910  141.2124  163.7773 C.ar    1  UNL1        0.0347
     32 C         138.8096  140.8453  164.7498 C.ar    1  UNL1        0.0029
     33 C         139.1641  140.4605  166.1555 C.ar    1  UNL1        0.0016
     34 C         143.3715  139.1969  170.9072 C.3     1  UNL1        0.0515
     35 C         142.2286  139.4852  169.9795 C.ar    1  UNL1        0.0535
     36 C         142.3414  139.8633  168.5324 C.ar    1  UNL1        0.0349
     37 C         140.9547  140.0579  167.9946 C.ar    1  UNL1        0.1018
     38 N         139.9848  139.8000  169.1094 N.ar    1  UNL1       -0.1730
     39 N         140.7720  139.4461  170.3362 N.ar    1  UNL1       -0.2798
     40 H         140.3984  139.2266  171.2202 H       1  UNL1        0.1886
@<TRIPOS>BOND
     1    34    35    1
     2    35    36   ar
     3    36    37   ar
     4    37    28    1
     5    28    29   ar
     6    29    30   ar
     7    30    31   ar
     8    31    26    1
     9    26    27    2
    10     1    26    1
    11     1     2    1
    12     2     3    1
    13     3     4    1
    14     4     5    1
    15     5     6    1
    16     6     7    1
    17     7     8    2
    18     7     9   am
    19     9    11    1
    20    11    12   ar
    21    12    13   ar
    22    13    14   ar
    23    14    15    1
    24    14    16   ar
    25    16    17    1
    26    17    18    2
    27    17    19   am
    28    19    21    1
    29    21    22    1
    30    22    23    1
    31    22    24    1
    32    22    25    1
    33    31    32   ar
    34    32    33   ar
    35    37    38   ar
    36    38    39   ar
    37    39    35   ar
    38    33    28   ar
    39     6     1    1
    40    16    11   ar
    41     9    10    1
    42    19    20    1
    43    39    40    1
@<TRIPOS>MOLECULE
*****
 40 43 0 0 0
SMALL
GASTEIGER

@<TRIPOS>ATOM
      1 C         140.7331  141.3117  168.3708 C.3     1  UNL1        0.0705
      2 C         140.3285  142.1079  169.5760 C.3     1  UNL1        0.0082
      3 C         141.3645  142.8506  170.3667 C.3     1  UNL1        0.0005
      4 C         142.8051  142.7970  169.9522 C.3     1  UNL1        0.0005
      5 C         143.2097  142.0008  168.7471 C.3     1  UNL1        0.0095
      6 C         142.1737  141.2582  167.9564 C.3     1  UNL1        0.0840
      7 C         142.5784  140.4619  166.7513 C.2     1  UNL1        0.2261
      8 O         142.7465  138.9751  166.8566 O.2     1  UNL1       -0.2748
      9 N         142.8148  141.1525  165.4409 N.am    1  UNL1       -0.2814
     10 H         142.7045  142.1284  165.3718 H       1  UNL1        0.1549
     11 C         143.2195  140.3563  164.2358 C.ar    1  UNL1        0.0935
     12 C         143.3636  138.8646  164.1723 C.ar    1  UNL1        0.1364
     13 N         143.7842  138.4984  162.7798 N.ar    1  UNL1       -0.1662
     14 N         143.9000  139.7638  161.9827 N.ar    1  UNL1       -0.2430
     15 C         144.2954  139.8634  160.5392 C.3     1  UNL1        0.1539
     16 C         143.5510  140.9120  162.8825 C.ar    1  UNL1        0.1480
     17 C         143.5361  142.3615  162.4968 C.2     1  UNL1        0.2866
     18 O         144.7149  143.2337  162.8120 O.2     1  UNL1       -0.2664
     19 N         142.3421  142.9388  161.7957 N.am    1  UNL1       -0.1886
     20 H         141.5684  142.3664  161.5888 H       1  UNL1        0.1829
     21 O         142.3273  144.3883  161.4100 O.3     1  UNL1       -0.2712
     22 C         141.1144  145.2259  161.6882 C.3     1  UNL1        0.1173
     23 C         140.7684  145.2094  160.2287 C.3     1  UNL1        0.0321
     24 C         141.4604  145.2424  163.1476 C.3     1  UNL1        0.0321
     25 C         139.9015  146.0635  161.9662 C.3     1  UNL1        0.0321
     26 C         139.6971  140.5691  167.5801 C.2     1  UNL1        0.1731
     27 O         138.8681  139.5076  168.2405 O.2     1  UNL1       -0.2913
     28 C         139.0763  141.5254  163.2270 C.ar    1  UNL1        0.0194
     29 C         139.2517  142.6350  164.2210 C.ar    1  UNL1        0.0016
     30 C         139.4586  142.3162  165.6720 C.ar    1  UNL1        0.0029
     31 C         139.4902  140.8878  166.1290 C.ar    1  UNL1        0.0347
     32 C         139.3148  139.7783  165.1350 C.ar    1  UNL1        0.0029
     33 C         139.1079  140.0971  163.6840 C.ar    1  UNL1        0.0016
     34 C         139.2970  141.3050  157.9559 C.3     1  UNL1        0.0515
     35 C         138.9708  141.7428  159.3530 C.ar    1  UNL1        0.0535
     36 C         139.4271  141.0740  160.6158 C.ar    1  UNL1        0.0349
     37 C         138.8694  141.8442  161.7759 C.ar    1  UNL1        0.1018
     38 N         138.0685  142.9890  161.2302 N.ar    1  UNL1       -0.1730
     39 N         138.1311  142.9264  159.7328 N.ar    1  UNL1       -0.2798
     40 H         137.6973  143.5523  159.1088 H       1  UNL1        0.1886
@<TRIPOS>BOND
     1    34    35    1
     2    35    36   ar
     3    36    37   ar
     4    37    28    1
     5    28    29   ar
     6    29    30   ar
     7    30    31   ar
     8    31    26    1
     9    26    27    2
    10     1    26    1
    11     1     2    1
    12     2     3    1
    13     3     4    1
    14     4     5    1
    15     5     6    1
    16     6     7    1
    17     7     8    2
    18     7     9   am
    19     9    11    1
    20    11    12   ar
    21    12    13   ar
    22    13    14   ar
    23    14    15    1
    24    14    16   ar
    25    16    17    1
    26    17    18    2
    27    17    19   am
    28    19    21    1
    29    21    22    1
    30    22    23    1
    31    22    24    1
    32    22    25    1
    33    31    32   ar
    34    32    33   ar
    35    37    38   ar
    36    38    39   ar
    37    39    35   ar
    38    33    28   ar
    39     6     1    1
    40    16    11   ar
    41     9    10    1
    42    19    20    1
    43    39    40    1
@<TRIPOS>MOLECULE
*****
 40 43 0 0 0
SMALL
GASTEIGER

@<TRIPOS>ATOM
      1 C         141.7844  140.7121  168.9409 C.3     1  UNL1        0.0705
      2 C         142.4152  141.5164  170.0387 C.3     1  UNL1        0.0082
      3 C         141.5627  142.3794  170.9211 C.3     1  UNL1        0.0005
      4 C         140.0795  142.4381  170.7056 C.3     1  UNL1        0.0005
      5 C         139.4486  141.6339  169.6078 C.3     1  UNL1        0.0095
      6 C         140.3011  140.7709  168.7254 C.3     1  UNL1        0.0840
      7 C         139.6702  139.9666  167.6276 C.2     1  UNL1        0.2261
      8 O         138.5864  138.9803  167.9481 O.2     1  UNL1       -0.2748
      9 N         140.1231  140.1486  166.2093 N.am    1  UNL1       -0.2814
     10 H         140.8344  140.7960  165.9989 H       1  UNL1        0.1549
     11 C         139.4923  139.3444  165.1114 C.ar    1  UNL1        0.0935
     12 C         139.3734  137.8497  165.0700 C.ar    1  UNL1        0.1364
     13 N         138.6773  137.4751  163.7953 N.ar    1  UNL1       -0.1662
     14 N         138.3658  138.7384  163.0488 N.ar    1  UNL1       -0.2430
     15 C         137.6724  138.8303  161.7218 C.3     1  UNL1        0.1539
     16 C         138.8696  139.8936  163.8622 C.ar    1  UNL1        0.1480
     17 C         138.7683  141.3435  163.4915 C.2     1  UNL1        0.2866
     18 O         137.4328  142.0263  163.4916 O.2     1  UNL1       -0.2664
     19 N         140.0028  142.1108  163.1206 N.am    1  UNL1       -0.1886
     20 H         140.8794  141.6628  163.1205 H       1  UNL1        0.1829
     21 O         139.9015  143.5608  162.7498 O.3     1  UNL1       -0.2712
     22 C         140.9393  144.5317  163.2296 C.3     1  UNL1        0.1173
     23 C         141.3729  144.7680  161.8132 C.3     1  UNL1        0.0321
     24 C         140.5058  144.2955  164.6460 C.3     1  UNL1        0.0321
     25 C         141.9772  145.5027  163.7092 C.3     1  UNL1        0.0321
     26 C         142.6368  139.8492  168.0585 C.2     1  UNL1        0.1731
     27 O         143.1045  138.5097  168.5454 O.2     1  UNL1       -0.2913
     28 C         143.7911  141.2786  163.9506 C.ar    1  UNL1        0.0194
     29 C         143.7289  139.8087  164.2433 C.ar    1  UNL1        0.0016
     30 C         143.3441  139.3323  165.6125 C.ar    1  UNL1        0.0029
     31 C         143.0216  140.3257  166.6892 C.ar    1  UNL1        0.0347
     32 C         143.0838  141.7955  166.3965 C.ar    1  UNL1        0.0029
     33 C         143.4686  142.2720  165.0273 C.ar    1  UNL1        0.0016
     34 C         143.5558  142.6080  158.8459 C.3     1  UNL1        0.0515
     35 C         144.0677  142.3661  160.2349 C.ar    1  UNL1        0.0535
     36 C         143.2690  141.8375  161.3893 C.ar    1  UNL1        0.0349
     37 C         144.1759  141.7551  162.5813 C.ar    1  UNL1        0.1018
     38 N         145.5350  142.2328  162.1636 N.ar    1  UNL1       -0.1730
     39 N         145.4682  142.6105  160.7135 N.ar    1  UNL1       -0.2798
     40 H         146.2128  142.9577  160.1710 H       1  UNL1        0.1886
@<TRIPOS>BOND
     1    34    35    1
     2    35    36   ar
     3    36    37   ar
     4    37    28    1
     5    28    29   ar
     6    29    30   ar
     7    30    31   ar
     8    31    26    1
     9    26    27    2
    10     1    26    1
    11     1     2    1
    12     2     3    1
    13     3     4    1
    14     4     5    1
    15     5     6    1
    16     6     7    1
    17     7     8    2
    18     7     9   am
    19     9    11    1
    20    11    12   ar
    21    12    13   ar
    22    13    14   ar
    23    14    15    1
    24    14    16   ar
    25    16    17    1
    26    17    18    2
    27    17    19   am
    28    19    21    1
    29    21    22    1
    30    22    23    1
    31    22    24    1
    32    22    25    1
    33    31    32   ar
    34    32    33   ar
    35    37    38   ar
    36    38    39   ar
    37    39    35   ar
    38    33    28   ar
    39     6     1    1
    40    16    11   ar
    41     9    10    1
    42    19    20    1
    43    39    40    1
@<TRIPOS>MOLECULE
*****
 40 43 0 0 0
SMALL
GASTEIGER

@<TRIPOS>ATOM
      1 C         142.2150  141.0799  168.6508 C.3     1  UNL1        0.0705
      2 C         143.0433  141.7628  169.6984 C.3     1  UNL1        0.0082
      3 C         142.5541  143.0314  170.3321 C.3     1  UNL1        0.0005
      4 C         141.2366  143.6169  169.9182 C.3     1  UNL1        0.0005
      5 C         140.4083  142.9339  168.8706 C.3     1  UNL1        0.0095
      6 C         140.8975  141.6655  168.2369 C.3     1  UNL1        0.0840
      7 C         140.0692  140.9825  167.1892 C.2     1  UNL1        0.2261
      8 O         139.2395  139.7864  167.5512 O.2     1  UNL1       -0.2748
      9 N         140.0705  141.4956  165.7798 N.am    1  UNL1       -0.2814
     10 H         140.6151  142.2807  165.5423 H       1  UNL1        0.1549
     11 C         139.2422  140.8127  164.7322 C.ar    1  UNL1        0.0935
     12 C         138.4381  139.5607  164.9217 C.ar    1  UNL1        0.1364
     13 N         137.7715  139.2361  163.6178 N.ar    1  UNL1       -0.1662
     14 N         138.1637  140.2874  162.6223 N.ar    1  UNL1       -0.2430
     15 C         137.7241  140.3528  161.1897 C.3     1  UNL1        0.1539
     16 C         139.0726  141.2618  163.3111 C.ar    1  UNL1        0.1480
     17 C         139.7016  142.4727  162.6880 C.2     1  UNL1        0.2866
     18 O         138.8471  143.6366  162.2820 O.2     1  UNL1       -0.2664
     19 N         141.1851  142.5196  162.4710 N.am    1  UNL1       -0.1886
     20 H         141.7460  141.7556  162.7375 H       1  UNL1        0.1829
     21 O         141.8141  143.7305  161.8480 O.3     1  UNL1       -0.2712
     22 C         142.8909  144.4762  162.5789 C.3     1  UNL1        0.1173
     23 C         141.8530  145.3562  163.2101 C.3     1  UNL1        0.0321
     24 C         143.9288  143.5962  161.9478 C.3     1  UNL1        0.0321
     25 C         143.9677  145.2220  163.3099 C.3     1  UNL1        0.0321
     26 C         142.7042  139.8114  168.0170 C.2     1  UNL1        0.1731
     27 O         143.1006  138.6479  168.8768 O.2     1  UNL1       -0.2913
     28 C         142.9824  139.4963  163.5367 C.ar    1  UNL1        0.0194
     29 C         142.2847  138.4255  164.3220 C.ar    1  UNL1        0.0016
     30 C         142.1920  138.5306  165.8154 C.ar    1  UNL1        0.0029
     31 C         142.7970  139.7064  166.5236 C.ar    1  UNL1        0.0347
     32 C         143.4947  140.7771  165.7383 C.ar    1  UNL1        0.0029
     33 C         143.5874  140.6720  164.2449 C.ar    1  UNL1        0.0016
     34 C         141.6905  138.8469  158.4583 C.3     1  UNL1        0.0515
     35 C         142.4813  139.0927  159.7090 C.ar    1  UNL1        0.0535
     36 C         141.9379  139.1081  161.1070 C.ar    1  UNL1        0.0349
     37 C         143.0752  139.3912  162.0432 C.ar    1  UNL1        0.1018
     38 N         144.3214  139.5509  161.2239 N.ar    1  UNL1       -0.1730
     39 N         143.9544  139.3665  159.7812 N.ar    1  UNL1       -0.2798
     40 H         144.5719  139.4163  159.0161 H       1  UNL1        0.1886
@<TRIPOS>BOND
     1    34    35    1
     2    35    36   ar
     3    36    37   ar
     4    37    28    1
     5    28    29   ar
     6    29    30   ar
     7    30    31   ar
     8    31    26    1
     9    26    27    2
    10     1    26    1
    11     1     2    1
    12     2     3    1
    13     3     4    1
    14     4     5    1
    15     5     6    1
    16     6     7    1
    17     7     8    2
    18     7     9   am
    19     9    11    1
    20    11    12   ar
    21    12    13   ar
    22    13    14   ar
    23    14    15    1
    24    14    16   ar
    25    16    17    1
    26    17    18    2
    27    17    19   am
    28    19    21    1
    29    21    22    1
    30    22    23    1
    31    22    24    1
    32    22    25    1
    33    31    32   ar
    34    32    33   ar
    35    37    38   ar
    36    38    39   ar
    37    39    35   ar
    38    33    28   ar
    39     6     1    1
    40    16    11   ar
    41     9    10    1
    42    19    20    1
    43    39    40    1
@<TRIPOS>MOLECULE
*****
 40 43 0 0 0
SMALL
GASTEIGER

@<TRIPOS>ATOM
      1 C         139.3570  138.0150  165.3660 C.3     1  UNL1        0.0705
      2 C         138.1798  137.1870  165.7885 C.3     1  UNL1        0.0082
      3 C         137.3716  137.5888  166.9867 C.3     1  UNL1        0.0005
      4 C         137.7407  138.8184  167.7623 C.3     1  UNL1        0.0005
      5 C         138.9180  139.6464  167.3397 C.3     1  UNL1        0.0095
      6 C         139.7261  139.2447  166.1416 C.3     1  UNL1        0.0840
      7 C         140.9033  140.0727  165.7191 C.2     1  UNL1        0.2261
      8 O         142.2542  139.4369  165.5743 O.2     1  UNL1       -0.2748
      9 N         140.7298  141.5365  165.4415 N.am    1  UNL1       -0.2814
     10 H         139.8432  141.9539  165.5366 H       1  UNL1        0.1549
     11 C         141.9070  142.3645  165.0190 C.ar    1  UNL1        0.0935
     12 C         143.1369  142.6299  165.8356 C.ar    1  UNL1        0.1364
     13 N         144.0511  143.5019  165.0270 N.ar    1  UNL1       -0.1662
     14 N         143.3862  143.7755  163.7105 N.ar    1  UNL1       -0.2430
     15 C         143.9478  144.6061  162.5949 C.3     1  UNL1        0.1539
     16 C         142.0611  143.0725  163.7056 C.ar    1  UNL1        0.1480
     17 C         141.0650  143.0769  162.5841 C.2     1  UNL1        0.2866
     18 O         140.4464  141.7897  162.1254 O.2     1  UNL1       -0.2664
     19 N         140.6874  144.3685  161.9213 N.am    1  UNL1       -0.1886
     20 H         141.0934  145.2134  162.2224 H       1  UNL1        0.1829
     21 O         139.6913  144.3729  160.7998 O.3     1  UNL1       -0.2712
     22 C         140.1592  144.2420  159.3807 C.3     1  UNL1        0.1173
     23 C         141.1784  145.3166  159.6178 C.3     1  UNL1        0.0321
     24 C         139.1399  143.1673  159.1436 C.3     1  UNL1        0.0321
     25 C         140.6271  144.1112  157.9616 C.3     1  UNL1        0.0321
     26 C         140.1652  137.6133  164.1679 C.2     1  UNL1        0.1731
     27 O         141.3433  136.6991  164.3301 O.2     1  UNL1       -0.2913
     28 C         139.0553  139.1508  160.0869 C.ar    1  UNL1        0.0194
     29 C         138.0182  139.0770  161.1681 C.ar    1  UNL1        0.0016
     30 C         138.3882  138.5645  162.5284 C.ar    1  UNL1        0.0029
     31 C         139.7952  138.1258  162.8075 C.ar    1  UNL1        0.0347
     32 C         140.8322  138.1996  161.7263 C.ar    1  UNL1        0.0029
     33 C         140.4623  138.7121  160.3660 C.ar    1  UNL1        0.0016
     34 C         139.3274  140.5504  155.0028 C.3     1  UNL1        0.0515
     35 C         138.8105  140.3066  156.3896 C.ar    1  UNL1        0.0535
     36 C         139.5913  139.7294  157.5329 C.ar    1  UNL1        0.0349
     37 C         138.6853  139.6633  158.7265 C.ar    1  UNL1        0.1018
     38 N         137.3445  140.1996  158.3210 N.ar    1  UNL1       -0.1730
     39 N         137.4218  140.5972  156.8768 N.ar    1  UNL1       -0.2798
     40 H         136.6896  140.9815  156.3424 H       1  UNL1        0.1886
@<TRIPOS>BOND
     1    34    35    1
     2    35    36   ar
     3    36    37   ar
     4    37    28    1
     5    28    29   ar
     6    29    30   ar
     7    30    31   ar
     8    31    26    1
     9    26    27    2
    10     1    26    1
    11     1     2    1
    12     2     3    1
    13     3     4    1
    14     4     5    1
    15     5     6    1
    16     6     7    1
    17     7     8    2
    18     7     9   am
    19     9    11    1
    20    11    12   ar
    21    12    13   ar
    22    13    14   ar
    23    14    15    1
    24    14    16   ar
    25    16    17    1
    26    17    18    2
    27    17    19   am
    28    19    21    1
    29    21    22    1
    30    22    23    1
    31    22    24    1
    32    22    25    1
    33    31    32   ar
    34    32    33   ar
    35    37    38   ar
    36    38    39   ar
    37    39    35   ar
    38    33    28   ar
    39     6     1    1
    40    16    11   ar
    41     9    10    1
    42    19    20    1
    43    39    40    1
@<TRIPOS>MOLECULE
*****
 40 43 0 0 0
SMALL
GASTEIGER

@<TRIPOS>ATOM
      1 C         139.7022  139.3756  166.6689 C.3     1  UNL1        0.0705
      2 C         139.0948  139.8141  167.9684 C.3     1  UNL1        0.0082
      3 C         139.9514  140.4606  169.0164 C.3     1  UNL1        0.0005
      4 C         141.4155  140.6686  168.7649 C.3     1  UNL1        0.0005
      5 C         142.0229  140.2300  167.4654 C.3     1  UNL1        0.0095
      6 C         141.1664  139.5835  166.4175 C.3     1  UNL1        0.0840
      7 C         141.7738  139.1450  165.1180 C.2     1  UNL1        0.2261
      8 O         141.8732  137.6842  164.7917 O.2     1  UNL1       -0.2748
      9 N         142.2819  140.1671  164.1448 N.am    1  UNL1       -0.2814
     10 H         142.2166  141.1258  164.3589 H       1  UNL1        0.1549
     11 C         142.8893  139.7285  162.8453 C.ar    1  UNL1        0.0935
     12 C         143.5562  138.4106  162.5841 C.ar    1  UNL1        0.1364
     13 N         144.0156  138.3984  161.1562 N.ar    1  UNL1       -0.1662
     14 N         143.6327  139.7089  160.5349 N.ar    1  UNL1       -0.2430
     15 C         143.8990  140.1244  159.1185 C.3     1  UNL1        0.1539
     16 C         142.9366  140.5309  161.5789 C.ar    1  UNL1        0.1480
     17 C         142.3847  141.9128  161.3895 C.2     1  UNL1        0.2866
     18 O         141.5500  142.2284  160.1839 O.2     1  UNL1       -0.2664
     19 N         142.6674  142.9792  162.4060 N.am    1  UNL1       -0.1886
     20 H         143.2153  142.7721  163.1973 H       1  UNL1        0.1829
     21 O         142.1155  144.3610  162.2166 O.3     1  UNL1       -0.2712
     22 C         140.7585  144.7067  162.7541 C.3     1  UNL1        0.1173
     23 C         141.0990  144.0300  164.0487 C.3     1  UNL1        0.0321
     24 C         140.4179  145.3833  161.4594 C.3     1  UNL1        0.0321
     25 C         139.4014  145.0523  163.2916 C.3     1  UNL1        0.0321
     26 C         138.8457  138.7291  165.6210 C.2     1  UNL1        0.1731
     27 O         138.1361  137.4421  165.9213 O.2     1  UNL1       -0.2913
     28 C         138.4046  140.6505  161.5758 C.ar    1  UNL1        0.0194
     29 C         138.4105  141.4992  162.8126 C.ar    1  UNL1        0.0016
     30 C         138.5575  140.8587  164.1609 C.ar    1  UNL1        0.0029
     31 C         138.6986  139.3696  164.2725 C.ar    1  UNL1        0.0347
     32 C         138.6928  138.5209  163.0357 C.ar    1  UNL1        0.0029
     33 C         138.5458  139.1614  161.6874 C.ar    1  UNL1        0.0016
     34 C         137.7247  141.3227  156.3828 C.3     1  UNL1        0.0515
     35 C         137.9451  141.5999  157.8404 C.ar    1  UNL1        0.0535
     36 C         138.0316  140.5727  158.9300 C.ar    1  UNL1        0.0349
     37 C         138.2576  141.2910  160.2273 C.ar    1  UNL1        0.1018
     38 N         138.3107  142.7622  159.9395 N.ar    1  UNL1       -0.1730
     39 N         138.1176  142.9531  158.4643 N.ar    1  UNL1       -0.2798
     40 H         138.1061  143.8152  157.9890 H       1  UNL1        0.1886
@<TRIPOS>BOND
     1    34    35    1
     2    35    36   ar
     3    36    37   ar
     4    37    28    1
     5    28    29   ar
     6    29    30   ar
     7    30    31   ar
     8    31    26    1
     9    26    27    2
    10     1    26    1
    11     1     2    1
    12     2     3    1
    13     3     4    1
    14     4     5    1
    15     5     6    1
    16     6     7    1
    17     7     8    2
    18     7     9   am
    19     9    11    1
    20    11    12   ar
    21    12    13   ar
    22    13    14   ar
    23    14    15    1
    24    14    16   ar
    25    16    17    1
    26    17    18    2
    27    17    19   am
    28    19    21    1
    29    21    22    1
    30    22    23    1
    31    22    24    1
    32    22    25    1
    33    31    32   ar
    34    32    33   ar
    35    37    38   ar
    36    38    39   ar
    37    39    35   ar
    38    33    28   ar
    39     6     1    1
    40    16    11   ar
    41     9    10    1
    42    19    20    1
    43    39    40    1
@<TRIPOS>MOLECULE
*****
 40 43 0 0 0
SMALL
GASTEIGER

@<TRIPOS>ATOM
      1 C         141.2052  137.9888  156.9355 C.3     1  UNL1        0.0705
      2 C         139.8603  137.3436  156.7774 C.3     1  UNL1        0.0082
      3 C         139.3235  137.0546  155.4069 C.3     1  UNL1        0.0005
      4 C         140.1316  137.4108  154.1944 C.3     1  UNL1        0.0005
      5 C         141.4765  138.0560  154.3524 C.3     1  UNL1        0.0095
      6 C         142.0133  138.3450  155.7229 C.3     1  UNL1        0.0840
      7 C         143.3582  138.9901  155.8809 C.2     1  UNL1        0.2261
      8 O         144.5927  138.1415  155.9583 O.2     1  UNL1       -0.2748
      9 N         143.4687  140.4838  155.9616 N.am    1  UNL1       -0.2814
     10 H         142.6585  141.0408  155.9108 H       1  UNL1        0.1549
     11 C         144.8136  141.1290  156.1196 C.ar    1  UNL1        0.0935
     12 C         145.9457  141.0595  155.1380 C.ar    1  UNL1        0.1364
     13 N         147.0943  141.8445  155.6987 N.ar    1  UNL1       -0.1662
     14 N         146.6722  142.3992  157.0269 N.ar    1  UNL1       -0.2430
     15 C         147.5121  143.2472  157.9354 C.3     1  UNL1        0.1539
     16 C         145.2626  141.9570  157.2870 C.ar    1  UNL1        0.1480
     17 C         144.4455  142.2852  158.5014 C.2     1  UNL1        0.2866
     18 O         143.8098  143.6372  158.6347 O.2     1  UNL1       -0.2664
     19 N         144.2642  141.2613  159.5826 N.am    1  UNL1       -0.1886
     20 H         144.6815  140.3739  159.4951 H       1  UNL1        0.1829
     21 O         143.4471  141.5895  160.7969 O.3     1  UNL1       -0.2712
     22 C         143.6613  140.8301  162.0726 C.3     1  UNL1        0.1173
     23 C         144.1706  139.6570  161.2886 C.3     1  UNL1        0.0321
     24 C         143.1521  142.0031  162.8565 C.3     1  UNL1        0.0321
     25 C         143.8755  140.0706  163.3482 C.3     1  UNL1        0.0321
     26 C         141.7421  138.2778  158.3059 C.2     1  UNL1        0.1731
     27 O         142.9264  137.5165  158.8234 O.2     1  UNL1       -0.2913
     28 C         139.7995  141.4284  160.8652 C.ar    1  UNL1        0.0194
     29 C         140.0238  140.0503  161.4133 C.ar    1  UNL1        0.0016
     30 C         140.6713  139.0001  160.5602 C.ar    1  UNL1        0.0029
     31 C         141.0945  139.3280  159.1590 C.ar    1  UNL1        0.0347
     32 C         140.8703  140.7061  158.6109 C.ar    1  UNL1        0.0029
     33 C         140.2227  141.7563  159.4640 C.ar    1  UNL1        0.0016
     34 C         138.7347  144.6730  164.8926 C.3     1  UNL1        0.0515
     35 C         138.6626  143.9700  163.5695 C.ar    1  UNL1        0.0535
     36 C         139.5917  142.8941  163.0909 C.ar    1  UNL1        0.0349
     37 C         139.1520  142.4787  161.7183 C.ar    1  UNL1        0.1018
     38 N         137.9511  143.2979  161.3485 N.ar    1  UNL1       -0.1730
     39 N         137.6486  144.2196  162.4926 N.ar    1  UNL1       -0.2798
     40 H         136.9136  144.8735  162.5301 H       1  UNL1        0.1886
@<TRIPOS>BOND
     1    34    35    1
     2    35    36   ar
     3    36    37   ar
     4    37    28    1
     5    28    29   ar
     6    29    30   ar
     7    30    31   ar
     8    31    26    1
     9    26    27    2
    10     1    26    1
    11     1     2    1
    12     2     3    1
    13     3     4    1
    14     4     5    1
    15     5     6    1
    16     6     7    1
    17     7     8    2
    18     7     9   am
    19     9    11    1
    20    11    12   ar
    21    12    13   ar
    22    13    14   ar
    23    14    15    1
    24    14    16   ar
    25    16    17    1
    26    17    18    2
    27    17    19   am
    28    19    21    1
    29    21    22    1
    30    22    23    1
    31    22    24    1
    32    22    25    1
    33    31    32   ar
    34    32    33   ar
    35    37    38   ar
    36    38    39   ar
    37    39    35   ar
    38    33    28   ar
    39     6     1    1
    40    16    11   ar
    41     9    10    1
    42    19    20    1
    43    39    40    1
@<TRIPOS>MOLECULE
*****
 40 43 0 0 0
SMALL
GASTEIGER

@<TRIPOS>ATOM
      1 C         139.1876  139.8222  154.7161 C.3     1  UNL1        0.0705
      2 C         138.5612  141.0086  154.0453 C.3     1  UNL1        0.0082
      3 C         137.5978  140.8081  152.9132 C.3     1  UNL1        0.0005
      4 C         137.2607  139.4212  152.4520 C.3     1  UNL1        0.0005
      5 C         137.8870  138.2347  153.1228 C.3     1  UNL1        0.0095
      6 C         138.8505  138.4352  154.2548 C.3     1  UNL1        0.0840
      7 C         139.4768  137.2487  154.9257 C.2     1  UNL1        0.2261
      8 O         138.7848  136.5886  156.0813 O.2     1  UNL1       -0.2748
      9 N         140.7951  136.7224  154.4410 N.am    1  UNL1       -0.2814
     10 H         141.2493  137.1557  153.6825 H       1  UNL1        0.1549
     11 C         141.4215  135.5360  155.1118 C.ar    1  UNL1        0.0935
     12 C         141.0077  134.1046  154.9382 C.ar    1  UNL1        0.1364
     13 N         141.9021  133.2566  155.7931 N.ar    1  UNL1       -0.1662
     14 N         142.8686  134.1638  156.4952 N.ar    1  UNL1       -0.2430
     15 C         143.9434  133.7372  157.4505 C.3     1  UNL1        0.1539
     16 C         142.5715  135.5725  156.0741 C.ar    1  UNL1        0.1480
     17 C         143.2972  136.8019  156.5345 C.2     1  UNL1        0.2866
     18 O         144.5515  137.2379  155.8370 O.2     1  UNL1       -0.2664
     19 N         142.7685  137.5954  157.6925 N.am    1  UNL1       -0.1886
     20 H         141.9452  137.3093  158.1503 H       1  UNL1        0.1829
     21 O         143.4941  138.8248  158.1529 O.3     1  UNL1       -0.2712
     22 C         142.8837  139.7077  159.2007 C.3     1  UNL1        0.1173
     23 C         143.3919  140.9188  158.4761 C.3     1  UNL1        0.0321
     24 C         142.3755  138.4966  159.9253 C.3     1  UNL1        0.0321
     25 C         142.2733  140.5907  160.2484 C.3     1  UNL1        0.0321
     26 C         140.1510  140.0227  155.8482 C.2     1  UNL1        0.1731
     27 O         141.6216  139.8287  155.6248 O.2     1  UNL1       -0.2913
     28 C         138.6298  141.2060  159.9145 C.ar    1  UNL1        0.0194
     29 C         139.0987  142.2582  158.9538 C.ar    1  UNL1        0.0016
     30 C         139.6057  141.8637  157.5984 C.ar    1  UNL1        0.0029
     31 C         139.6439  140.4171  157.2037 C.ar    1  UNL1        0.0347
     32 C         139.1751  139.3649  158.1644 C.ar    1  UNL1        0.0029
     33 C         138.6680  139.7594  159.5198 C.ar    1  UNL1        0.0016
     34 C         137.7054  143.9578  164.3253 C.3     1  UNL1        0.0515
     35 C         137.6979  142.8653  163.2974 C.ar    1  UNL1        0.0535
     36 C         138.3997  142.8967  161.9722 C.ar    1  UNL1        0.0349
     37 C         138.1227  141.6004  161.2701 C.ar    1  UNL1        0.1018
     38 N         137.2496  140.7679  162.1614 N.ar    1  UNL1       -0.1730
     39 N         136.9870  141.5496  163.4144 N.ar    1  UNL1       -0.2798
     40 H         136.4436  141.2514  164.1792 H       1  UNL1        0.1886
@<TRIPOS>BOND
     1    34    35    1
     2    35    36   ar
     3    36    37   ar
     4    37    28    1
     5    28    29   ar
     6    29    30   ar
     7    30    31   ar
     8    31    26    1
     9    26    27    2
    10     1    26    1
    11     1     2    1
    12     2     3    1
    13     3     4    1
    14     4     5    1
    15     5     6    1
    16     6     7    1
    17     7     8    2
    18     7     9   am
    19     9    11    1
    20    11    12   ar
    21    12    13   ar
    22    13    14   ar
    23    14    15    1
    24    14    16   ar
    25    16    17    1
    26    17    18    2
    27    17    19   am
    28    19    21    1
    29    21    22    1
    30    22    23    1
    31    22    24    1
    32    22    25    1
    33    31    32   ar
    34    32    33   ar
    35    37    38   ar
    36    38    39   ar
    37    39    35   ar
    38    33    28   ar
    39     6     1    1
    40    16    11   ar
    41     9    10    1
    42    19    20    1
    43    39    40    1
