@<TRIPOS>MOLECULE
*****
 32 36 0 0 0
SMALL
GASTEIGER

@<TRIPOS>ATOM
      1 C         139.8986  138.3623  162.8184 C.3     1  UNL1        0.0991
      2 F         142.3310  146.3079  157.8245 F       1  UNL1       -0.1832
      3 C         141.6260  145.0853  158.3327 C.ar    1  UNL1        0.2221
      4 C         140.3384  144.6453  157.7018 C.ar    1  UNL1        0.0476
      5 C         139.6335  143.4227  158.2099 C.ar    1  UNL1        0.0108
      6 C         140.2163  142.6401  159.3491 C.ar    1  UNL1        0.0198
      7 C         141.5040  143.0800  159.9801 C.ar    1  UNL1        0.0990
      8 N         142.2089  144.3027  159.4720 N.ar    1  UNL1       -0.2167
      9 C         139.3022  141.4852  159.6338 C.3     1  UNL1        0.1157
     10 C         138.2981  140.3836  159.8013 C.3     1  UNL1        0.0489
     11 C         138.4969  139.3426  160.8628 C.3     1  UNL1        0.0751
     12 N         139.6999  139.4033  161.7568 N.3     1  UNL1       -0.2688
     13 C         140.7040  140.5050  161.5893 C.3     1  UNL1        0.0751
     14 C         140.5052  141.5459  160.5278 C.3     1  UNL1        0.0489
     15 O         138.1545  141.5541  158.6705 O.3     1  UNL1       -0.3496
     16 C         138.3592  142.7516  157.7904 C.3     1  UNL1        0.1687
     17 C         139.8001  138.7398  164.2668 C.ar    1  UNL1       -0.0061
     18 C         140.9649  139.3892  164.9535 C.ar    1  UNL1       -0.0016
     19 C         140.8663  139.7667  166.4019 C.ar    1  UNL1        0.0143
     20 C         139.6031  139.4946  167.1636 C.ar    1  UNL1        0.0483
     21 C         138.4383  138.8452  166.4768 C.ar    1  UNL1        0.0143
     22 C         138.5368  138.4678  165.0285 C.ar    1  UNL1       -0.0016
     23 N         139.5046  139.8721  168.6119 N.pl3   1  UNL1       -0.3125
     24 H         138.8016  139.4771  169.1768 H       1  UNL1        0.1522
     25 C         140.4771  140.8513  169.1996 C.ar    1  UNL1        0.0507
     26 C         141.8244  140.3833  169.6640 C.ar    1  UNL1        0.0171
     27 C         142.7969  141.3625  170.2517 C.ar    1  UNL1        0.0332
     28 C         142.4221  142.8096  170.3750 C.ar    1  UNL1        0.1675
     29 F         143.3946  143.7888  170.9628 F       1  UNL1       -0.2018
     30 C         141.0747  143.2777  169.9106 C.ar    1  UNL1        0.1686
     31 F         140.6999  144.7248  170.0340 F       1  UNL1       -0.2018
     32 C         140.1022  142.2985  169.3229 C.ar    1  UNL1        0.0466
@<TRIPOS>BOND
     1     2     3    1
     2     3     4   ar
     3     4     5   ar
     4     5     6   ar
     5     6     7   ar
     6     7     8   ar
     7     6     9    1
     8     9    10    1
     9    10    11    1
    10    11    12    1
    11    12     1    1
    12     1    17    1
    13    17    18   ar
    14    18    19   ar
    15    19    20   ar
    16    20    23    1
    17    23    25    1
    18    25    26   ar
    19    26    27   ar
    20    27    28   ar
    21    28    29    1
    22    28    30   ar
    23    30    31    1
    24    30    32   ar
    25    20    21   ar
    26    21    22   ar
    27    12    13    1
    28    13    14    1
    29     9    15    1
    30    15    16    1
    31     8     3   ar
    32    14     9    1
    33    16     5    1
    34    22    17   ar
    35    32    25   ar
    36    23    24    1
@<TRIPOS>MOLECULE
*****
 32 36 0 0 0
SMALL
GASTEIGER

@<TRIPOS>ATOM
      1 C         138.1749  139.9398  163.6855 C.3     1  UNL1        0.0991
      2 F         144.7930  142.9163  170.1141 F       1  UNL1       -0.1832
      3 C         143.6016  142.2783  169.4636 C.ar    1  UNL1        0.2221
      4 C         142.6315  141.4856  170.2884 C.ar    1  UNL1        0.0476
      5 C         141.4400  140.8475  169.6378 C.ar    1  UNL1        0.0108
      6 C         141.2187  141.0022  168.1623 C.ar    1  UNL1        0.0198
      7 C         142.1888  141.7949  167.3374 C.ar    1  UNL1        0.0990
      8 N         143.3803  142.4330  167.9880 N.ar    1  UNL1       -0.2167
      9 C         139.9633  140.2643  167.8020 C.3     1  UNL1        0.1157
     10 C         138.6966  139.4884  167.5937 C.3     1  UNL1        0.0489
     11 C         138.1005  139.3803  166.2215 C.3     1  UNL1        0.0751
     12 N         138.7711  140.0480  165.0577 N.3     1  UNL1       -0.2688
     13 C         140.0378  140.8238  165.2660 C.3     1  UNL1        0.0751
     14 C         140.6339  140.9320  166.6382 C.3     1  UNL1        0.0489
     15 O         139.4088  139.6536  169.0549 O.3     1  UNL1       -0.3496
     16 C         140.3215  140.0140  170.1895 C.3     1  UNL1        0.1687
     17 C         139.0688  139.8442  162.4848 C.ar    1  UNL1       -0.0061
     18 C         139.7882  138.5624  162.1854 C.ar    1  UNL1       -0.0016
     19 C         140.6821  138.4669  160.9847 C.ar    1  UNL1        0.0143
     20 C         140.8566  139.6530  160.0833 C.ar    1  UNL1        0.0483
     21 C         140.1373  140.9348  160.3826 C.ar    1  UNL1        0.0143
     22 C         139.2434  141.0304  161.5833 C.ar    1  UNL1       -0.0016
     23 N         141.7505  139.5574  158.8826 N.pl3   1  UNL1       -0.3125
     24 H         142.4312  140.2497  158.7193 H       1  UNL1        0.1522
     25 C         141.6074  138.4070  157.9307 C.ar    1  UNL1        0.0507
     26 C         140.3373  138.2312  157.1523 C.ar    1  UNL1        0.0171
     27 C         140.1942  137.0808  156.2004 C.ar    1  UNL1        0.0332
     28 C         141.3212  136.1063  156.0268 C.ar    1  UNL1        0.1675
     29 F         141.1780  134.9559  155.0749 F       1  UNL1       -0.2018
     30 C         142.5913  136.2821  156.8052 C.ar    1  UNL1        0.1686
     31 F         143.7183  135.3075  156.6317 F       1  UNL1       -0.2018
     32 C         142.7345  137.4324  157.7572 C.ar    1  UNL1        0.0466
@<TRIPOS>BOND
     1     2     3    1
     2     3     4   ar
     3     4     5   ar
     4     5     6   ar
     5     6     7   ar
     6     7     8   ar
     7     6     9    1
     8     9    10    1
     9    10    11    1
    10    11    12    1
    11    12     1    1
    12     1    17    1
    13    17    18   ar
    14    18    19   ar
    15    19    20   ar
    16    20    23    1
    17    23    25    1
    18    25    26   ar
    19    26    27   ar
    20    27    28   ar
    21    28    29    1
    22    28    30   ar
    23    30    31    1
    24    30    32   ar
    25    20    21   ar
    26    21    22   ar
    27    12    13    1
    28    13    14    1
    29     9    15    1
    30    15    16    1
    31     8     3   ar
    32    14     9    1
    33    16     5    1
    34    22    17   ar
    35    32    25   ar
    36    23    24    1
@<TRIPOS>MOLECULE
*****
 32 36 0 0 0
SMALL
GASTEIGER

@<TRIPOS>ATOM
      1 C         139.2835  139.4889  159.1854 C.3     1  UNL1        0.0991
      2 F         140.7398  143.0454  168.0859 F       1  UNL1       -0.1832
      3 C         140.3646  142.1678  166.9287 C.ar    1  UNL1        0.2221
      4 C         139.7574  140.8188  167.1764 C.ar    1  UNL1        0.0476
      5 C         139.3823  139.9412  166.0193 C.ar    1  UNL1        0.0108
      6 C         139.6145  140.4126  164.6143 C.ar    1  UNL1        0.0198
      7 C         140.2218  141.7616  164.3665 C.ar    1  UNL1        0.0990
      8 N         140.5969  142.6392  165.5237 N.ar    1  UNL1       -0.2167
      9 C         139.1468  139.3356  163.6807 C.3     1  UNL1        0.1157
     10 C         138.6403  138.1762  162.8750 C.3     1  UNL1        0.0489
     11 C         138.6858  138.2273  161.3766 C.3     1  UNL1        0.0751
     12 N         139.2379  139.4378  160.6839 N.3     1  UNL1       -0.2688
     13 C         139.7444  140.5973  161.4896 C.3     1  UNL1        0.0751
     14 C         139.6989  140.5462  162.9880 C.3     1  UNL1        0.0489
     15 O         138.6256  138.1986  164.5087 O.3     1  UNL1       -0.3496
     16 C         138.7711  138.5729  165.9541 C.3     1  UNL1        0.1687
     17 C         140.2433  138.6148  158.4340 C.ar    1  UNL1       -0.0061
     18 C         139.8118  137.9477  157.1617 C.ar    1  UNL1       -0.0016
     19 C         140.7718  137.0736  156.4103 C.ar    1  UNL1        0.0143
     20 C         142.1631  136.8666  156.9312 C.ar    1  UNL1        0.0483
     21 C         142.5945  137.5338  158.2035 C.ar    1  UNL1        0.0143
     22 C         141.6347  138.4079  158.9549 C.ar    1  UNL1       -0.0016
     23 N         143.1229  135.9925  156.1799 N.pl3   1  UNL1       -0.3125
     24 H         143.7972  136.3974  155.5876 H       1  UNL1        0.1522
     25 C         143.0555  134.5017  156.3307 C.ar    1  UNL1        0.0507
     26 C         142.0254  133.7171  155.5736 C.ar    1  UNL1        0.0171
     27 C         141.9579  132.2262  155.7245 C.ar    1  UNL1        0.0332
     28 C         142.9205  131.5199  156.6325 C.ar    1  UNL1        0.1675
     29 F         142.8530  130.0291  156.7834 F       1  UNL1       -0.2018
     30 C         143.9507  132.3046  157.3897 C.ar    1  UNL1        0.1686
     31 F         144.9133  131.5983  158.2977 F       1  UNL1       -0.2018
     32 C         144.0181  133.7954  157.2388 C.ar    1  UNL1        0.0466
@<TRIPOS>BOND
     1     2     3    1
     2     3     4   ar
     3     4     5   ar
     4     5     6   ar
     5     6     7   ar
     6     7     8   ar
     7     6     9    1
     8     9    10    1
     9    10    11    1
    10    11    12    1
    11    12     1    1
    12     1    17    1
    13    17    18   ar
    14    18    19   ar
    15    19    20   ar
    16    20    23    1
    17    23    25    1
    18    25    26   ar
    19    26    27   ar
    20    27    28   ar
    21    28    29    1
    22    28    30   ar
    23    30    31    1
    24    30    32   ar
    25    20    21   ar
    26    21    22   ar
    27    12    13    1
    28    13    14    1
    29     9    15    1
    30    15    16    1
    31     8     3   ar
    32    14     9    1
    33    16     5    1
    34    22    17   ar
    35    32    25   ar
    36    23    24    1
@<TRIPOS>MOLECULE
*****
 32 36 0 0 0
SMALL
GASTEIGER

@<TRIPOS>ATOM
      1 C         138.9892  137.9617  163.7813 C.3     1  UNL1        0.0991
      2 F         143.8022  143.1373  170.4172 F       1  UNL1       -0.1832
      3 C         142.7760  142.3082  169.7034 C.ar    1  UNL1        0.2221
      4 C         141.5136  141.9077  170.4075 C.ar    1  UNL1        0.0476
      5 C         140.4874  141.0786  169.6937 C.ar    1  UNL1        0.0108
      6 C         140.7237  140.6501  168.2757 C.ar    1  UNL1        0.0198
      7 C         141.9861  141.0507  167.5716 C.ar    1  UNL1        0.0990
      8 N         143.0123  141.8797  168.2854 N.ar    1  UNL1       -0.2167
      9 C         139.5400  139.8424  167.8322 C.3     1  UNL1        0.1157
     10 C         138.2967  139.0589  167.5319 C.3     1  UNL1        0.0489
     11 C         138.1131  138.4320  166.1816 C.3     1  UNL1        0.0751
     12 N         139.1728  138.5886  165.1316 N.3     1  UNL1       -0.2688
     13 C         140.4161  139.3721  165.4319 C.3     1  UNL1        0.0751
     14 C         140.5997  139.9990  166.7822 C.3     1  UNL1        0.0489
     15 O         138.5722  139.7718  168.9760 O.3     1  UNL1       -0.3496
     16 C         139.1577  140.5358  170.1265 C.3     1  UNL1        0.1687
     17 C         138.7685  138.8272  162.5763 C.ar    1  UNL1       -0.0061
     18 C         139.3663  138.4412  161.2559 C.ar    1  UNL1       -0.0016
     19 C         139.1456  139.3068  160.0508 C.ar    1  UNL1        0.0143
     20 C         138.3269  140.5584  160.1663 C.ar    1  UNL1        0.0483
     21 C         137.7290  140.9444  161.4867 C.ar    1  UNL1        0.0143
     22 C         137.9498  140.0789  162.6917 C.ar    1  UNL1       -0.0016
     23 N         138.1062  141.4239  158.9613 N.pl3   1  UNL1       -0.3125
     24 H         137.3802  141.2136  158.3304 H       1  UNL1        0.1522
     25 C         138.9916  142.6099  158.7174 C.ar    1  UNL1        0.0507
     26 C         139.1485  143.1558  157.3291 C.ar    1  UNL1        0.0171
     27 C         140.0339  144.3418  157.0852 C.ar    1  UNL1        0.0332
     28 C         140.7623  144.9819  158.2295 C.ar    1  UNL1        0.1675
     29 F         141.6477  146.1679  157.9856 F       1  UNL1       -0.2018
     30 C         140.6054  144.4360  159.6179 C.ar    1  UNL1        0.1686
     31 F         141.3338  145.0761  160.7622 F       1  UNL1       -0.2018
     32 C         139.7200  143.2500  159.8618 C.ar    1  UNL1        0.0466
@<TRIPOS>BOND
     1     2     3    1
     2     3     4   ar
     3     4     5   ar
     4     5     6   ar
     5     6     7   ar
     6     7     8   ar
     7     6     9    1
     8     9    10    1
     9    10    11    1
    10    11    12    1
    11    12     1    1
    12     1    17    1
    13    17    18   ar
    14    18    19   ar
    15    19    20   ar
    16    20    23    1
    17    23    25    1
    18    25    26   ar
    19    26    27   ar
    20    27    28   ar
    21    28    29    1
    22    28    30   ar
    23    30    31    1
    24    30    32   ar
    25    20    21   ar
    26    21    22   ar
    27    12    13    1
    28    13    14    1
    29     9    15    1
    30    15    16    1
    31     8     3   ar
    32    14     9    1
    33    16     5    1
    34    22    17   ar
    35    32    25   ar
    36    23    24    1
@<TRIPOS>MOLECULE
*****
 32 36 0 0 0
SMALL
GASTEIGER

@<TRIPOS>ATOM
      1 C         141.9810  138.5367  157.6298 C.3     1  UNL1        0.0991
      2 F         145.2990  129.6939  155.4427 F       1  UNL1       -0.1832
      3 C         144.5090  130.9686  155.4766 C.ar    1  UNL1        0.2221
      4 C         143.3510  131.1583  154.5425 C.ar    1  UNL1        0.0476
      5 C         142.5610  132.4330  154.5764 C.ar    1  UNL1        0.0108
      6 C         142.9292  133.5179  155.5445 C.ar    1  UNL1        0.0198
      7 C         144.0873  133.3282  156.4788 C.ar    1  UNL1        0.0990
      8 N         144.8772  132.0535  156.4449 N.ar    1  UNL1       -0.2167
      9 C         141.9733  134.6574  155.3494 C.3     1  UNL1        0.1157
     10 C         140.9497  135.7100  155.0422 C.3     1  UNL1        0.0489
     11 C         140.9523  137.0030  155.8023 C.3     1  UNL1        0.0751
     12 N         141.9785  137.2436  156.8697 N.3     1  UNL1       -0.2688
     13 C         143.0020  136.1910  157.1768 C.3     1  UNL1        0.0751
     14 C         142.9994  134.8979  156.4167 C.3     1  UNL1        0.0489
     15 O         141.0143  134.2766  154.2605 O.3     1  UNL1       -0.3496
     16 C         141.3776  132.9018  153.7828 C.3     1  UNL1        0.1687
     17 C         140.8964  138.8236  158.6254 C.ar    1  UNL1       -0.0061
     18 C         139.6658  139.5684  158.2000 C.ar    1  UNL1       -0.0016
     19 C         138.5811  139.8553  159.1956 C.ar    1  UNL1        0.0143
     20 C         138.7270  139.3975  160.6166 C.ar    1  UNL1        0.0483
     21 C         139.9577  138.6527  161.0419 C.ar    1  UNL1        0.0143
     22 C         141.0423  138.3658  160.0464 C.ar    1  UNL1       -0.0016
     23 N         137.6424  139.6844  161.6121 N.pl3   1  UNL1       -0.3125
     24 H         136.8305  139.1278  161.6296 H       1  UNL1        0.1522
     25 C         137.7947  140.8193  162.5810 C.ar    1  UNL1        0.0507
     26 C         138.0747  140.5381  164.0275 C.ar    1  UNL1        0.0171
     27 C         138.2270  141.6730  164.9964 C.ar    1  UNL1        0.0332
     28 C         138.0993  143.0891  164.5188 C.ar    1  UNL1        0.1675
     29 F         138.2516  144.2241  165.4877 F       1  UNL1       -0.2018
     30 C         137.8193  143.3704  163.0722 C.ar    1  UNL1        0.1686
     31 F         137.6916  144.7866  162.5946 F       1  UNL1       -0.2018
     32 C         137.6670  142.2355  162.1033 C.ar    1  UNL1        0.0466
@<TRIPOS>BOND
     1     2     3    1
     2     3     4   ar
     3     4     5   ar
     4     5     6   ar
     5     6     7   ar
     6     7     8   ar
     7     6     9    1
     8     9    10    1
     9    10    11    1
    10    11    12    1
    11    12     1    1
    12     1    17    1
    13    17    18   ar
    14    18    19   ar
    15    19    20   ar
    16    20    23    1
    17    23    25    1
    18    25    26   ar
    19    26    27   ar
    20    27    28   ar
    21    28    29    1
    22    28    30   ar
    23    30    31    1
    24    30    32   ar
    25    20    21   ar
    26    21    22   ar
    27    12    13    1
    28    13    14    1
    29     9    15    1
    30    15    16    1
    31     8     3   ar
    32    14     9    1
    33    16     5    1
    34    22    17   ar
    35    32    25   ar
    36    23    24    1
@<TRIPOS>MOLECULE
*****
 32 36 0 0 0
SMALL
GASTEIGER

@<TRIPOS>ATOM
      1 C         141.8863  138.5162  157.7925 C.3     1  UNL1        0.0991
      2 F         145.2223  129.8062  155.1476 F       1  UNL1       -0.1832
      3 C         144.4325  131.0777  155.2449 C.ar    1  UNL1        0.2221
      4 C         143.2838  131.3204  154.3115 C.ar    1  UNL1        0.0476
      5 C         142.4940  132.5919  154.4088 C.ar    1  UNL1        0.0108
      6 C         142.8530  133.6208  155.4396 C.ar    1  UNL1        0.0198
      7 C         144.0018  133.3781  156.3730 C.ar    1  UNL1        0.0990
      8 N         144.7916  132.1066  156.2757 N.ar    1  UNL1       -0.2167
      9 C         141.8995  134.7702  155.2990 C.3     1  UNL1        0.1157
     10 C         140.8793  135.8392  155.0411 C.3     1  UNL1        0.0489
     11 C         140.8750  137.0878  155.8723 C.3     1  UNL1        0.0751
     12 N         141.8907  137.2675  156.9613 N.3     1  UNL1       -0.2688
     13 C         142.9108  136.1985  157.2192 C.3     1  UNL1        0.0751
     14 C         142.9152  134.9498  156.3880 C.3     1  UNL1        0.0489
     15 O         140.9511  134.4517  154.1813 O.3     1  UNL1       -0.3496
     16 C         141.3185  133.1054  153.6311 C.3     1  UNL1        0.1687
     17 C         141.9649  138.4223  159.2875 C.ar    1  UNL1       -0.0061
     18 C         140.7070  138.3814  160.1035 C.ar    1  UNL1       -0.0016
     19 C         140.7856  138.2875  161.5986 C.ar    1  UNL1        0.0143
     20 C         142.1221  138.2346  162.2775 C.ar    1  UNL1        0.0483
     21 C         143.3800  138.2755  161.4614 C.ar    1  UNL1        0.0143
     22 C         143.3014  138.3694  159.9664 C.ar    1  UNL1       -0.0016
     23 N         142.2007  138.1407  163.7724 N.pl3   1  UNL1       -0.3125
     24 H         143.0614  137.9456  164.2088 H       1  UNL1        0.1522
     25 C         140.9680  138.3441  164.6025 C.ar    1  UNL1        0.0507
     26 C         139.9284  137.2655  164.6782 C.ar    1  UNL1        0.0171
     27 C         138.6957  137.4689  165.5083 C.ar    1  UNL1        0.0332
     28 C         138.5026  138.7508  166.2627 C.ar    1  UNL1        0.1675
     29 F         137.2699  138.9542  167.0928 F       1  UNL1       -0.2018
     30 C         139.5422  139.8295  166.1871 C.ar    1  UNL1        0.1686
     31 F         139.3492  141.1115  166.9416 F       1  UNL1       -0.2018
     32 C         140.7750  139.6261  165.3570 C.ar    1  UNL1        0.0466
@<TRIPOS>BOND
     1     2     3    1
     2     3     4   ar
     3     4     5   ar
     4     5     6   ar
     5     6     7   ar
     6     7     8   ar
     7     6     9    1
     8     9    10    1
     9    10    11    1
    10    11    12    1
    11    12     1    1
    12     1    17    1
    13    17    18   ar
    14    18    19   ar
    15    19    20   ar
    16    20    23    1
    17    23    25    1
    18    25    26   ar
    19    26    27   ar
    20    27    28   ar
    21    28    29    1
    22    28    30   ar
    23    30    31    1
    24    30    32   ar
    25    20    21   ar
    26    21    22   ar
    27    12    13    1
    28    13    14    1
    29     9    15    1
    30    15    16    1
    31     8     3   ar
    32    14     9    1
    33    16     5    1
    34    22    17   ar
    35    32    25   ar
    36    23    24    1
@<TRIPOS>MOLECULE
*****
 32 36 0 0 0
SMALL
GASTEIGER

@<TRIPOS>ATOM
      1 C         138.9015  142.0768  161.8604 C.3     1  UNL1        0.0991
      2 F         143.8674  135.5676  156.6683 F       1  UNL1       -0.1832
      3 C         142.8348  136.5461  157.1440 C.ar    1  UNL1        0.2221
      4 C         141.6239  136.8261  156.3044 C.ar    1  UNL1        0.0476
      5 C         140.5914  137.8047  156.7801 C.ar    1  UNL1        0.0108
      6 C         140.7698  138.5032  158.0955 C.ar    1  UNL1        0.0198
      7 C         141.9809  138.2232  158.9352 C.ar    1  UNL1        0.0990
      8 N         143.0134  137.2446  158.4595 N.ar    1  UNL1       -0.2167
      9 C         139.5931  139.4102  158.3022 C.3     1  UNL1        0.1157
     10 C         138.3632  140.2662  158.3701 C.3     1  UNL1        0.0489
     11 C         138.1327  141.1550  159.5561 C.3     1  UNL1        0.0751
     12 N         139.1321  141.1879  160.6743 N.3     1  UNL1       -0.2688
     13 C         140.3619  140.3319  160.6063 C.3     1  UNL1        0.0751
     14 C         140.5924  139.4431  159.4203 C.3     1  UNL1        0.0489
     15 O         138.6873  139.2722  157.1145 O.3     1  UNL1       -0.3496
     16 C         139.3043  138.2799  156.1738 C.3     1  UNL1        0.1687
     17 C         139.2713  141.6041  163.2350 C.ar    1  UNL1       -0.0061
     18 C         138.2963  140.7944  164.0373 C.ar    1  UNL1       -0.0016
     19 C         138.6661  140.3217  165.4120 C.ar    1  UNL1        0.0143
     20 C         140.0110  140.6587  165.9844 C.ar    1  UNL1        0.0483
     21 C         140.9861  141.4684  165.1822 C.ar    1  UNL1        0.0143
     22 C         140.6162  141.9411  163.8075 C.ar    1  UNL1       -0.0016
     23 N         140.3808  140.1860  167.3591 N.pl3   1  UNL1       -0.3125
     24 H         140.1251  139.2823  167.6542 H       1  UNL1        0.1522
     25 C         141.1402  141.0902  168.2841 C.ar    1  UNL1        0.0507
     26 C         142.5087  140.6999  168.7583 C.ar    1  UNL1        0.0171
     27 C         143.2681  141.6041  169.6834 C.ar    1  UNL1        0.0332
     28 C         142.6591  142.8987  170.1341 C.ar    1  UNL1        0.1675
     29 F         143.4185  143.8029  171.0592 F       1  UNL1       -0.2018
     30 C         141.2906  143.2890  169.6599 C.ar    1  UNL1        0.1686
     31 F         140.6815  144.5836  170.1107 F       1  UNL1       -0.2018
     32 C         140.5311  142.3848  168.7349 C.ar    1  UNL1        0.0466
@<TRIPOS>BOND
     1     2     3    1
     2     3     4   ar
     3     4     5   ar
     4     5     6   ar
     5     6     7   ar
     6     7     8   ar
     7     6     9    1
     8     9    10    1
     9    10    11    1
    10    11    12    1
    11    12     1    1
    12     1    17    1
    13    17    18   ar
    14    18    19   ar
    15    19    20   ar
    16    20    23    1
    17    23    25    1
    18    25    26   ar
    19    26    27   ar
    20    27    28   ar
    21    28    29    1
    22    28    30   ar
    23    30    31    1
    24    30    32   ar
    25    20    21   ar
    26    21    22   ar
    27    12    13    1
    28    13    14    1
    29     9    15    1
    30    15    16    1
    31     8     3   ar
    32    14     9    1
    33    16     5    1
    34    22    17   ar
    35    32    25   ar
    36    23    24    1
@<TRIPOS>MOLECULE
*****
 32 36 0 0 0
SMALL
GASTEIGER

@<TRIPOS>ATOM
      1 C         142.4854  138.2893  156.6122 C.3     1  UNL1        0.0991
      2 F         145.1724  129.0822  158.0251 F       1  UNL1       -0.1832
      3 C         144.4706  130.3225  157.5571 C.ar    1  UNL1        0.2221
      4 C         143.3163  130.2172  156.6051 C.ar    1  UNL1        0.0476
      5 C         142.6145  131.4575  156.1371 C.ar    1  UNL1        0.0108
      6 C         143.0670  132.8032  156.6212 C.ar    1  UNL1        0.0198
      7 C         144.2214  132.9085  157.5733 C.ar    1  UNL1        0.0990
      8 N         144.9232  131.6682  158.0413 N.ar    1  UNL1       -0.2167
      9 C         142.1876  133.8423  155.9911 C.3     1  UNL1        0.1157
     10 C         141.2335  134.7631  155.2898 C.3     1  UNL1        0.0489
     11 C         141.3328  136.2454  155.4968 C.3     1  UNL1        0.0751
     12 N         142.3862  136.8069  156.4051 N.3     1  UNL1       -0.2688
     13 C         143.3403  135.8862  157.1064 C.3     1  UNL1        0.0751
     14 C         143.2410  134.4039  156.8994 C.3     1  UNL1        0.0489
     15 O         141.1916  133.1388  155.1175 O.3     1  UNL1       -0.3496
     16 C         141.4554  131.6649  155.2078 C.3     1  UNL1        0.1687
     17 C         142.2884  138.8703  157.9810 C.ar    1  UNL1       -0.0061
     18 C         143.2479  139.8972  158.5051 C.ar    1  UNL1       -0.0016
     19 C         143.0508  140.4782  159.8739 C.ar    1  UNL1        0.0143
     20 C         141.8943  140.0322  160.7186 C.ar    1  UNL1        0.0483
     21 C         140.9348  139.0052  160.1945 C.ar    1  UNL1        0.0143
     22 C         141.1318  138.4242  158.8257 C.ar    1  UNL1       -0.0016
     23 N         141.6973  140.6132  162.0874 N.pl3   1  UNL1       -0.3125
     24 H         141.2098  141.4614  162.1966 H       1  UNL1        0.1522
     25 C         142.2432  139.9017  163.2898 C.ar    1  UNL1        0.0507
     26 C         141.3063  139.2866  164.2868 C.ar    1  UNL1        0.0171
     27 C         141.8521  138.5751  165.4892 C.ar    1  UNL1        0.0332
     28 C         143.3348  138.4787  165.6947 C.ar    1  UNL1        0.1675
     29 F         143.8807  137.7672  166.8971 F       1  UNL1       -0.2018
     30 C         144.2718  139.0938  164.6977 C.ar    1  UNL1        0.1686
     31 F         145.7545  138.9974  164.9033 F       1  UNL1       -0.2018
     32 C         143.7259  139.8053  163.4953 C.ar    1  UNL1        0.0466
@<TRIPOS>BOND
     1     2     3    1
     2     3     4   ar
     3     4     5   ar
     4     5     6   ar
     5     6     7   ar
     6     7     8   ar
     7     6     9    1
     8     9    10    1
     9    10    11    1
    10    11    12    1
    11    12     1    1
    12     1    17    1
    13    17    18   ar
    14    18    19   ar
    15    19    20   ar
    16    20    23    1
    17    23    25    1
    18    25    26   ar
    19    26    27   ar
    20    27    28   ar
    21    28    29    1
    22    28    30   ar
    23    30    31    1
    24    30    32   ar
    25    20    21   ar
    26    21    22   ar
    27    12    13    1
    28    13    14    1
    29     9    15    1
    30    15    16    1
    31     8     3   ar
    32    14     9    1
    33    16     5    1
    34    22    17   ar
    35    32    25   ar
    36    23    24    1
@<TRIPOS>MOLECULE
*****
 32 36 0 0 0
SMALL
GASTEIGER

@<TRIPOS>ATOM
      1 C         138.5140  138.3371  161.3041 C.3     1  UNL1        0.0991
      2 F         146.3150  141.3081  156.3741 F       1  UNL1       -0.1832
      3 C         144.9341  141.1820  156.9460 C.ar    1  UNL1        0.2221
      4 C         143.8725  142.1719  156.5681 C.ar    1  UNL1        0.0476
      5 C         142.4916  142.0458  157.1400 C.ar    1  UNL1        0.0108
      6 C         142.1723  140.9297  158.0899 C.ar    1  UNL1        0.0198
      7 C         143.2339  139.9397  158.4679 C.ar    1  UNL1        0.0990
      8 N         144.6148  140.0658  157.8960 N.ar    1  UNL1       -0.2167
      9 C         140.7323  141.0592  158.4900 C.3     1  UNL1        0.1157
     10 C         139.2866  141.3150  158.7970 C.3     1  UNL1        0.0489
     11 C         138.5471  140.4076  159.7350 C.3     1  UNL1        0.0751
     12 N         139.2535  139.2445  160.3660 N.3     1  UNL1       -0.2688
     13 C         140.6992  138.9887  160.0590 C.3     1  UNL1        0.0751
     14 C         141.4387  139.8960  159.1210 C.3     1  UNL1        0.0489
     15 O         140.1617  142.2553  157.7873 O.3     1  UNL1       -0.3496
     16 C         141.2490  142.8651  156.9529 C.3     1  UNL1        0.1687
     17 C         138.5434  138.5997  162.7806 C.ar    1  UNL1       -0.0061
     18 C         138.1852  139.9574  163.3082 C.ar    1  UNL1       -0.0016
     19 C         138.2146  140.2200  164.7848 C.ar    1  UNL1        0.0143
     20 C         138.6022  139.1249  165.7337 C.ar    1  UNL1        0.0483
     21 C         138.9604  137.7672  165.2061 C.ar    1  UNL1        0.0143
     22 C         138.9310  137.5046  163.7296 C.ar    1  UNL1       -0.0016
     23 N         138.6316  139.3875  167.2102 N.pl3   1  UNL1       -0.3125
     24 H         137.8177  139.2599  167.7492 H       1  UNL1        0.1522
     25 C         139.9011  139.8447  167.8656 C.ar    1  UNL1        0.0507
     26 C         141.1646  139.9463  167.0637 C.ar    1  UNL1        0.0171
     27 C         142.4341  140.4035  167.7190 C.ar    1  UNL1        0.0332
     28 C         142.4400  140.7590  169.1763 C.ar    1  UNL1        0.1675
     29 F         143.7095  141.2161  169.8316 F       1  UNL1       -0.2018
     30 C         141.1764  140.6574  169.9782 C.ar    1  UNL1        0.1686
     31 F         141.1823  141.0129  171.4354 F       1  UNL1       -0.2018
     32 C         139.9069  140.2002  169.3229 C.ar    1  UNL1        0.0466
@<TRIPOS>BOND
     1     2     3    1
     2     3     4   ar
     3     4     5   ar
     4     5     6   ar
     5     6     7   ar
     6     7     8   ar
     7     6     9    1
     8     9    10    1
     9    10    11    1
    10    11    12    1
    11    12     1    1
    12     1    17    1
    13    17    18   ar
    14    18    19   ar
    15    19    20   ar
    16    20    23    1
    17    23    25    1
    18    25    26   ar
    19    26    27   ar
    20    27    28   ar
    21    28    29    1
    22    28    30   ar
    23    30    31    1
    24    30    32   ar
    25    20    21   ar
    26    21    22   ar
    27    12    13    1
    28    13    14    1
    29     9    15    1
    30    15    16    1
    31     8     3   ar
    32    14     9    1
    33    16     5    1
    34    22    17   ar
    35    32    25   ar
    36    23    24    1
