@<TRIPOS>MOLECULE
*****
 27 29 0 0 0
SMALL
GASTEIGER

@<TRIPOS>ATOM
      1 N         139.3558  140.4058  165.0570 N.am    1  UNL1       -0.2681
      2 C         140.4577  139.8751  164.1887 C.2     1  UNL1        0.3078
      3 O         141.8494  139.7515  164.7346 O.2     1  UNL1       -0.2522
      4 N         140.1681  139.4680  162.7743 N.am    1  UNL1       -0.2591
      5 C         141.2701  138.9373  161.9060 C.3     1  UNL1        0.1121
      6 C         140.9805  138.5301  160.4916 C.3     1  UNL1        0.0904
      7 N         139.5888  138.6537  159.9457 N.3     1  UNL1       -0.2946
      8 C         138.4868  139.1844  160.8140 C.3     1  UNL1        0.0925
      9 C         138.7765  139.5915  162.2283 C.3     1  UNL1        0.1361
     10 H         138.4424  140.4869  164.6987 H       1  UNL1        0.1564
     11 H         139.3053  137.7203  159.6478 H       1  UNL1        0.1233
     12 C         140.2248  141.6272  169.3000 C.ar    1  UNL1        0.1388
     13 C         140.5334  142.5656  168.1713 C.ar    1  UNL1        0.0382
     14 C         140.2437  142.1584  166.7569 C.ar    1  UNL1        0.0178
     15 C         139.6455  140.8129  166.4713 C.ar    1  UNL1        0.0518
     16 C         139.3368  139.8745  167.6001 C.ar    1  UNL1        0.0178
     17 C         139.6265  140.2817  169.0144 C.ar    1  UNL1        0.0382
     18 C         141.9226  142.0037  171.2302 C.3     1  UNL1        0.2525
     19 O         140.5144  142.0343  170.7143 O.3     1  UNL1       -0.4714
     20 C         137.6746  140.1222  163.0967 C.3     1  UNL1        0.2265
     21 O         137.0121  141.4242  162.7559 O.3     1  UNL1       -0.4721
     22 C         137.7968  142.7015  162.8093 C.ar    1  UNL1        0.1577
     23 C         137.9350  143.4432  164.1058 C.ar    1  UNL1        0.0401
     24 C         138.7196  144.7205  164.1592 C.ar    1  UNL1        0.0238
     25 C         139.3661  145.2561  162.9161 C.ar    1  UNL1        0.0991
     26 N         139.2279  144.5144  161.6197 N.ar    1  UNL1       -0.2391
     27 C         138.4432  143.2371  161.5663 C.ar    1  UNL1        0.1356
@<TRIPOS>BOND
     1    18    19    1
     2    19    12    1
     3    12    13   ar
     4    13    14   ar
     5    14    15   ar
     6    15     1    1
     7     1     2   am
     8     2     3    2
     9     2     4   am
    10     4     5    1
    11     5     6    1
    12     6     7    1
    13     7     8    1
    14     8     9    1
    15     9    20    1
    16    20    21    1
    17    21    22    1
    18    22    23   ar
    19    23    24   ar
    20    24    25   ar
    21    25    26   ar
    22    26    27   ar
    23    15    16   ar
    24    16    17   ar
    25    17    12   ar
    26     9     4    1
    27    27    22   ar
    28     1    10    1
    29     7    11    1
@<TRIPOS>MOLECULE
*****
 27 29 0 0 0
SMALL
GASTEIGER

@<TRIPOS>ATOM
      1 N         142.1248  140.5383  166.2320 N.am    1  UNL1       -0.2681
      2 C         142.4803  140.0045  167.5879 C.2     1  UNL1        0.3078
      3 O         143.2886  138.7468  167.7106 O.2     1  UNL1       -0.2522
      4 N         142.0276  140.7283  168.8212 N.am    1  UNL1       -0.2591
      5 C         142.3832  140.1945  170.1772 C.3     1  UNL1        0.1121
      6 C         141.9305  140.9183  171.4106 C.3     1  UNL1        0.0904
      7 N         141.1222  142.1760  171.2879 N.3     1  UNL1       -0.2946
      8 C         140.7667  142.7098  169.9320 C.3     1  UNL1        0.0925
      9 C         141.2194  141.9860  168.6986 C.3     1  UNL1        0.1361
     10 H         141.5944  141.3638  166.1515 H       1  UNL1        0.1564
     11 H         141.6454  142.9100  171.7654 H       1  UNL1        0.1233
     12 C         143.4829  138.3668  162.5320 C.ar    1  UNL1        0.1388
     13 C         144.3451  139.4374  163.1323 C.ar    1  UNL1        0.0382
     14 C         143.8924  140.1612  164.3656 C.ar    1  UNL1        0.0178
     15 C         142.5775  139.8145  164.9986 C.ar    1  UNL1        0.0518
     16 C         141.7153  138.7439  164.3983 C.ar    1  UNL1        0.0178
     17 C         142.1680  138.0200  163.1650 C.ar    1  UNL1        0.0382
     18 C         143.0410  137.5776  160.0965 C.3     1  UNL1        0.2525
     19 O         143.9356  137.6429  161.2986 O.3     1  UNL1       -0.4714
     20 C         140.8639  142.5198  167.3427 C.3     1  UNL1        0.2265
     21 O         139.7164  141.9265  166.5803 O.3     1  UNL1       -0.4721
     22 C         139.1410  142.6562  165.4028 C.ar    1  UNL1        0.1577
     23 C         139.5589  144.0685  165.1184 C.ar    1  UNL1        0.0401
     24 C         138.9835  144.7982  163.9409 C.ar    1  UNL1        0.0238
     25 C         137.9902  144.1156  163.0479 C.ar    1  UNL1        0.0991
     26 N         137.5723  142.7034  163.3323 N.ar    1  UNL1       -0.2391
     27 C         138.1477  141.9736  164.5098 C.ar    1  UNL1        0.1356
@<TRIPOS>BOND
     1    18    19    1
     2    19    12    1
     3    12    13   ar
     4    13    14   ar
     5    14    15   ar
     6    15     1    1
     7     1     2   am
     8     2     3    2
     9     2     4   am
    10     4     5    1
    11     5     6    1
    12     6     7    1
    13     7     8    1
    14     8     9    1
    15     9    20    1
    16    20    21    1
    17    21    22    1
    18    22    23   ar
    19    23    24   ar
    20    24    25   ar
    21    25    26   ar
    22    26    27   ar
    23    15    16   ar
    24    16    17   ar
    25    17    12   ar
    26     9     4    1
    27    27    22   ar
    28     1    10    1
    29     7    11    1
@<TRIPOS>MOLECULE
*****
 27 29 0 0 0
SMALL
GASTEIGER

@<TRIPOS>ATOM
      1 N         140.6130  139.7709  166.5029 N.am    1  UNL1       -0.2681
      2 C         139.9334  139.7861  167.8400 C.2     1  UNL1        0.3078
      3 O         138.4669  139.4870  167.9394 O.2     1  UNL1       -0.2522
      4 N         140.7203  140.1006  169.0777 N.am    1  UNL1       -0.2591
      5 C         140.0406  140.1158  170.4148 C.3     1  UNL1        0.1121
      6 C         140.8275  140.4302  171.6526 C.3     1  UNL1        0.0904
      7 N         142.2940  140.7294  171.5532 N.3     1  UNL1       -0.2946
      8 C         142.9736  140.7142  170.2161 C.3     1  UNL1        0.0925
      9 C         142.1867  140.3998  168.9783 C.3     1  UNL1        0.1361
     10 H         141.5755  139.9673  166.4376 H       1  UNL1        0.1564
     11 H         142.7746  140.0437  172.1355 H       1  UNL1        0.1233
     12 C         138.2524  138.8276  162.7897 C.ar    1  UNL1        0.1388
     13 C         138.1942  140.2026  163.3863 C.ar    1  UNL1        0.0382
     14 C         138.9811  140.5170  164.6240 C.ar    1  UNL1        0.0178
     15 C         139.8261  139.4565  165.2651 C.ar    1  UNL1        0.0518
     16 C         139.8843  138.0815  164.6685 C.ar    1  UNL1        0.0178
     17 C         139.0975  137.7671  163.4308 C.ar    1  UNL1        0.0382
     18 C         137.2975  139.5544  160.4854 C.3     1  UNL1        0.2525
     19 O         137.4655  138.5132  161.5519 O.3     1  UNL1       -0.4714
     20 C         142.8663  140.3845  167.6412 C.3     1  UNL1        0.2265
     21 O         142.9105  141.6311  166.8081 O.3     1  UNL1       -0.4721
     22 C         143.6344  141.6299  165.4943 C.ar    1  UNL1        0.1577
     23 C         144.0121  140.3304  164.8473 C.ar    1  UNL1        0.0401
     24 C         144.7360  140.3292  163.5336 C.ar    1  UNL1        0.0238
     25 C         145.0822  141.6275  162.8668 C.ar    1  UNL1        0.0991
     26 N         144.7046  142.9270  163.5138 N.ar    1  UNL1       -0.2391
     27 C         143.9807  142.9282  164.8276 C.ar    1  UNL1        0.1356
@<TRIPOS>BOND
     1    18    19    1
     2    19    12    1
     3    12    13   ar
     4    13    14   ar
     5    14    15   ar
     6    15     1    1
     7     1     2   am
     8     2     3    2
     9     2     4   am
    10     4     5    1
    11     5     6    1
    12     6     7    1
    13     7     8    1
    14     8     9    1
    15     9    20    1
    16    20    21    1
    17    21    22    1
    18    22    23   ar
    19    23    24   ar
    20    24    25   ar
    21    25    26   ar
    22    26    27   ar
    23    15    16   ar
    24    16    17   ar
    25    17    12   ar
    26     9     4    1
    27    27    22   ar
    28     1    10    1
    29     7    11    1
@<TRIPOS>MOLECULE
*****
 27 29 0 0 0
SMALL
GASTEIGER

@<TRIPOS>ATOM
      1 N         140.4412  142.3841  166.0051 N.am    1  UNL1       -0.2681
      2 C         141.2199  143.2436  165.0540 C.2     1  UNL1        0.3078
      3 O         142.7121  143.3357  165.1761 O.2     1  UNL1       -0.2522
      4 N         140.5065  144.0112  163.9807 N.am    1  UNL1       -0.2591
      5 C         141.2853  144.8708  163.0295 C.3     1  UNL1        0.1121
      6 C         140.5719  145.6383  161.9563 C.3     1  UNL1        0.0904
      7 N         139.0797  145.5463  161.8342 N.3     1  UNL1       -0.2946
      8 C         138.3009  144.6867  162.7853 C.3     1  UNL1        0.0925
      9 C         139.0143  143.9192  163.8585 C.3     1  UNL1        0.1361
     10 H         139.4618  142.3237  165.9249 H       1  UNL1        0.1564
     11 H         138.8818  145.2004  160.8952 H       1  UNL1        0.1233
     12 C         142.5814  140.0814  169.2249 C.ar    1  UNL1        0.1388
     13 C         142.4838  139.5176  167.8383 C.ar    1  UNL1        0.0382
     14 C         141.7704  140.2852  166.7651 C.ar    1  UNL1        0.0178
     15 C         141.1546  141.6165  167.0783 C.ar    1  UNL1        0.0518
     16 C         141.2522  142.1803  168.4649 C.ar    1  UNL1        0.0178
     17 C         141.9656  141.4128  169.5381 C.ar    1  UNL1        0.0382
     18 C         143.1496  137.8230  170.3767 C.3     1  UNL1        0.2525
     19 O         143.2948  139.3139  170.2981 O.3     1  UNL1       -0.4714
     20 C         138.2356  143.0596  164.8097 C.3     1  UNL1        0.2265
     21 O         137.5999  141.7903  164.3249 O.3     1  UNL1       -0.4721
     22 C         138.3527  140.4955  164.4073 C.ar    1  UNL1        0.1577
     23 C         138.0925  139.5473  165.5401 C.ar    1  UNL1        0.0401
     24 C         138.8453  138.2526  165.6224 C.ar    1  UNL1        0.0238
     25 C         139.8584  137.9059  164.5720 C.ar    1  UNL1        0.0991
     26 N         140.1187  138.8540  163.4392 N.ar    1  UNL1       -0.2391
     27 C         139.3658  140.1489  163.3568 C.ar    1  UNL1        0.1356
@<TRIPOS>BOND
     1    18    19    1
     2    19    12    1
     3    12    13   ar
     4    13    14   ar
     5    14    15   ar
     6    15     1    1
     7     1     2   am
     8     2     3    2
     9     2     4   am
    10     4     5    1
    11     5     6    1
    12     6     7    1
    13     7     8    1
    14     8     9    1
    15     9    20    1
    16    20    21    1
    17    21    22    1
    18    22    23   ar
    19    23    24   ar
    20    24    25   ar
    21    25    26   ar
    22    26    27   ar
    23    15    16   ar
    24    16    17   ar
    25    17    12   ar
    26     9     4    1
    27    27    22   ar
    28     1    10    1
    29     7    11    1
@<TRIPOS>MOLECULE
*****
 27 29 0 0 0
SMALL
GASTEIGER

@<TRIPOS>ATOM
      1 N         138.7645  140.2093  163.2453 N.am    1  UNL1       -0.2681
      2 C         139.4475  139.2312  162.3360 C.2     1  UNL1        0.3078
      3 O         140.3067  138.1451  162.9124 O.2     1  UNL1       -0.2522
      4 N         139.2712  139.3392  160.8503 N.am    1  UNL1       -0.2591
      5 C         139.9543  138.3611  159.9410 C.3     1  UNL1        0.1121
      6 C         139.7780  138.4690  158.4553 C.3     1  UNL1        0.0904
      7 N         138.9188  139.5552  157.8789 N.3     1  UNL1       -0.2946
      8 C         138.2359  140.5333  158.7882 C.3     1  UNL1        0.0925
      9 C         138.4121  140.4253  160.2739 C.3     1  UNL1        0.1361
     10 H         138.2006  140.9221  162.8670 H       1  UNL1        0.1564
     11 H         138.1866  139.0954  157.3378 H       1  UNL1        0.1233
     12 C         139.2931  139.8854  167.7024 C.ar    1  UNL1        0.1388
     13 C         140.0838  140.8954  166.9248 C.ar    1  UNL1        0.0382
     14 C         139.9076  141.0034  165.4391 C.ar    1  UNL1        0.0178
     15 C         138.9407  140.1013  164.7310 C.ar    1  UNL1        0.0518
     16 C         138.1501  139.0913  165.5086 C.ar    1  UNL1        0.0178
     17 C         138.3263  138.9833  166.9943 C.ar    1  UNL1        0.0382
     18 C         140.7900  140.1163  169.8133 C.3     1  UNL1        0.2525
     19 O         139.4693  139.7774  169.1881 O.3     1  UNL1       -0.4714
     20 C         137.7291  141.4034  161.1832 C.3     1  UNL1        0.2265
     21 O         138.1556  142.8415  161.1939 O.3     1  UNL1       -0.4721
     22 C         138.5153  143.5075  162.4888 C.ar    1  UNL1        0.1577
     23 C         137.5096  143.5803  163.5995 C.ar    1  UNL1        0.0401
     24 C         137.8694  144.2464  164.8945 C.ar    1  UNL1        0.0238
     25 C         139.2347  144.8396  165.0788 C.ar    1  UNL1        0.0991
     26 N         140.2403  144.7668  163.9683 N.ar    1  UNL1       -0.2391
     27 C         139.8806  144.1008  162.6732 C.ar    1  UNL1        0.1356
@<TRIPOS>BOND
     1    18    19    1
     2    19    12    1
     3    12    13   ar
     4    13    14   ar
     5    14    15   ar
     6    15     1    1
     7     1     2   am
     8     2     3    2
     9     2     4   am
    10     4     5    1
    11     5     6    1
    12     6     7    1
    13     7     8    1
    14     8     9    1
    15     9    20    1
    16    20    21    1
    17    21    22    1
    18    22    23   ar
    19    23    24   ar
    20    24    25   ar
    21    25    26   ar
    22    26    27   ar
    23    15    16   ar
    24    16    17   ar
    25    17    12   ar
    26     9     4    1
    27    27    22   ar
    28     1    10    1
    29     7    11    1
@<TRIPOS>MOLECULE
*****
 27 29 0 0 0
SMALL
GASTEIGER

@<TRIPOS>ATOM
      1 N         143.1612  140.0079  165.2592 N.am    1  UNL1       -0.2681
      2 C         142.0460  139.6087  164.3389 C.2     1  UNL1        0.3078
      3 O         140.6405  139.5246  164.8562 O.2     1  UNL1       -0.2522
      4 N         142.3363  139.2936  162.9014 N.am    1  UNL1       -0.2591
      5 C         141.2210  138.8944  161.9811 C.3     1  UNL1        0.1121
      6 C         141.5112  138.5793  160.5436 C.3     1  UNL1        0.0904
      7 N         142.9168  138.6635  160.0264 N.3     1  UNL1       -0.2946
      8 C         144.0319  139.0627  160.9466 C.3     1  UNL1        0.0925
      9 C         143.7417  139.3778  162.3842 C.3     1  UNL1        0.1361
     10 H         144.0837  140.0631  164.9197 H       1  UNL1        0.1564
     11 H         142.9094  139.3392  159.2623 H       1  UNL1        0.1233
     12 C         142.2905  140.9531  169.5718 C.ar    1  UNL1        0.1388
     13 C         142.4171  142.0636  168.5714 C.ar    1  UNL1        0.0382
     14 C         142.7073  141.7485  167.1338 C.ar    1  UNL1        0.0178
     15 C         142.8710  140.3230  166.6967 C.ar    1  UNL1        0.0518
     16 C         142.7444  139.2126  167.6972 C.ar    1  UNL1        0.0178
     17 C         142.4541  139.5276  169.1347 C.ar    1  UNL1        0.0382
     18 C         140.6845  141.8780  171.3926 C.3     1  UNL1        0.2525
     19 O         142.0002  141.2682  171.0093 O.3     1  UNL1       -0.4714
     20 C         144.8569  139.7770  163.3044 C.3     1  UNL1        0.2265
     21 O         145.6237  141.0408  163.0495 O.3     1  UNL1       -0.4721
     22 C         144.9428  142.3707  163.1817 C.ar    1  UNL1        0.1577
     23 C         144.7855  143.0017  164.5335 C.ar    1  UNL1        0.0401
     24 C         144.1047  144.3317  164.6657 C.ar    1  UNL1        0.0238
     25 C         143.5811  145.0308  163.4462 C.ar    1  UNL1        0.0991
     26 N         143.7384  144.3999  162.0945 N.ar    1  UNL1       -0.2391
     27 C         144.4192  143.0698  161.9622 C.ar    1  UNL1        0.1356
@<TRIPOS>BOND
     1    18    19    1
     2    19    12    1
     3    12    13   ar
     4    13    14   ar
     5    14    15   ar
     6    15     1    1
     7     1     2   am
     8     2     3    2
     9     2     4   am
    10     4     5    1
    11     5     6    1
    12     6     7    1
    13     7     8    1
    14     8     9    1
    15     9    20    1
    16    20    21    1
    17    21    22    1
    18    22    23   ar
    19    23    24   ar
    20    24    25   ar
    21    25    26   ar
    22    26    27   ar
    23    15    16   ar
    24    16    17   ar
    25    17    12   ar
    26     9     4    1
    27    27    22   ar
    28     1    10    1
    29     7    11    1
@<TRIPOS>MOLECULE
*****
 27 29 0 0 0
SMALL
GASTEIGER

@<TRIPOS>ATOM
      1 N         141.6408  142.2468  166.0890 N.am    1  UNL1       -0.2681
      2 C         142.7928  141.5046  165.4793 C.2     1  UNL1        0.3078
      3 O         143.2039  140.1723  166.0327 O.2     1  UNL1       -0.2522
      4 N         143.5339  142.0946  164.3162 N.am    1  UNL1       -0.2591
      5 C         144.6860  141.3523  163.7065 C.3     1  UNL1        0.1121
      6 C         145.4271  141.9422  162.5434 C.3     1  UNL1        0.0904
      7 N         145.0160  143.2745  161.9901 N.3     1  UNL1       -0.2946
      8 C         143.8640  144.0168  162.5998 C.3     1  UNL1        0.0925
      9 C         143.1229  143.4268  163.7629 C.3     1  UNL1        0.1361
     10 H         141.3710  143.1212  165.7259 H       1  UNL1        0.1564
     11 H         144.7842  143.1266  161.0079 H       1  UNL1        0.1233
     12 C         139.4176  140.4768  169.5783 C.ar    1  UNL1        0.1388
     13 C         139.2243  139.9129  168.2018 C.ar    1  UNL1        0.0382
     14 C         139.9654  140.5029  167.0387 C.ar    1  UNL1        0.0178
     15 C         140.8997  141.6568  167.2521 C.ar    1  UNL1        0.0518
     16 C         141.0930  142.2207  168.6286 C.ar    1  UNL1        0.0178
     17 C         140.3519  141.6307  169.7916 C.ar    1  UNL1        0.0382
     18 C         137.2740  139.3866  170.5612 C.3     1  UNL1        0.2525
     19 O         138.6765  139.8868  170.7413 O.3     1  UNL1       -0.4714
     20 C         141.9708  144.1690  164.3726 C.3     1  UNL1        0.2265
     21 O         140.8031  144.5715  163.5214 O.3     1  UNL1       -0.4721
     22 C         139.6352  143.6436  163.3631 C.ar    1  UNL1        0.1577
     23 C         138.7919  143.2897  164.5521 C.ar    1  UNL1        0.0401
     24 C         137.6241  142.3618  164.3938 C.ar    1  UNL1        0.0238
     25 C         137.2995  141.7877  163.0466 C.ar    1  UNL1        0.0991
     26 N         138.1427  142.1416  161.8576 N.ar    1  UNL1       -0.2391
     27 C         139.3107  143.0695  162.0159 C.ar    1  UNL1        0.1356
@<TRIPOS>BOND
     1    18    19    1
     2    19    12    1
     3    12    13   ar
     4    13    14   ar
     5    14    15   ar
     6    15     1    1
     7     1     2   am
     8     2     3    2
     9     2     4   am
    10     4     5    1
    11     5     6    1
    12     6     7    1
    13     7     8    1
    14     8     9    1
    15     9    20    1
    16    20    21    1
    17    21    22    1
    18    22    23   ar
    19    23    24   ar
    20    24    25   ar
    21    25    26   ar
    22    26    27   ar
    23    15    16   ar
    24    16    17   ar
    25    17    12   ar
    26     9     4    1
    27    27    22   ar
    28     1    10    1
    29     7    11    1
@<TRIPOS>MOLECULE
*****
 27 29 0 0 0
SMALL
GASTEIGER

@<TRIPOS>ATOM
      1 N         140.8872  142.0578  166.3706 N.am    1  UNL1       -0.2681
      2 C         140.7065  142.4104  167.8173 C.2     1  UNL1        0.3078
      3 O         139.9687  143.6597  168.1983 O.2     1  UNL1       -0.2522
      4 N         141.2637  141.5139  168.8831 N.am    1  UNL1       -0.2591
      5 C         141.0831  141.8667  170.3298 C.3     1  UNL1        0.1121
      6 C         141.6403  140.9702  171.3956 C.3     1  UNL1        0.0904
      7 N         142.3781  139.7209  171.0146 N.3     1  UNL1       -0.2946
      8 C         142.5587  139.3683  169.5679 C.3     1  UNL1        0.0925
      9 C         142.0015  140.2648  168.5021 C.3     1  UNL1        0.1361
     10 H         141.3714  141.2379  166.1206 H       1  UNL1        0.1564
     11 H         141.8819  138.9422  171.4477 H       1  UNL1        0.1233
     12 C         139.2156  144.7473  163.1734 C.ar    1  UNL1        0.1388
     13 C         140.6687  144.8273  163.5366 C.ar    1  UNL1        0.0382
     14 C         141.2259  143.9308  164.6023 C.ar    1  UNL1        0.0178
     15 C         140.3300  142.9543  165.3049 C.ar    1  UNL1        0.0518
     16 C         138.8769  142.8742  164.9416 C.ar    1  UNL1        0.0178
     17 C         138.3197  143.7707  163.8759 C.ar    1  UNL1        0.0382
     18 C         139.5851  146.3658  161.1749 C.3     1  UNL1        0.2525
     19 O         138.6584  145.6438  162.1076 O.3     1  UNL1       -0.4714
     20 C         142.1821  139.9121  167.0554 C.3     1  UNL1        0.2265
     21 O         141.1160  139.1439  166.3319 O.3     1  UNL1       -0.4721
     22 C         141.3308  138.7217  164.9087 C.ar    1  UNL1        0.1577
     23 C         142.1505  139.5767  163.9883 C.ar    1  UNL1        0.0401
     24 C         142.3653  139.1545  162.5651 C.ar    1  UNL1        0.0238
     25 C         141.7604  137.8773  162.0622 C.ar    1  UNL1        0.0991
     26 N         140.9408  137.0223  162.9826 N.ar    1  UNL1       -0.2391
     27 C         140.7260  137.4445  164.4059 C.ar    1  UNL1        0.1356
@<TRIPOS>BOND
     1    18    19    1
     2    19    12    1
     3    12    13   ar
     4    13    14   ar
     5    14    15   ar
     6    15     1    1
     7     1     2   am
     8     2     3    2
     9     2     4   am
    10     4     5    1
    11     5     6    1
    12     6     7    1
    13     7     8    1
    14     8     9    1
    15     9    20    1
    16    20    21    1
    17    21    22    1
    18    22    23   ar
    19    23    24   ar
    20    24    25   ar
    21    25    26   ar
    22    26    27   ar
    23    15    16   ar
    24    16    17   ar
    25    17    12   ar
    26     9     4    1
    27    27    22   ar
    28     1    10    1
    29     7    11    1
@<TRIPOS>MOLECULE
*****
 27 29 0 0 0
SMALL
GASTEIGER

@<TRIPOS>ATOM
      1 N         139.4054  139.1263  163.8273 N.am    1  UNL1       -0.2681
      2 C         138.5745  139.9418  162.8816 C.2     1  UNL1        0.3078
      3 O         137.6140  140.9626  163.4161 O.2     1  UNL1       -0.2522
      4 N         138.7039  139.7367  161.4013 N.am    1  UNL1       -0.2591
      5 C         137.8729  140.5523  160.4556 C.3     1  UNL1        0.1121
      6 C         138.0024  140.3471  158.9753 C.3     1  UNL1        0.0904
      7 N         138.9629  139.3264  158.4408 N.3     1  UNL1       -0.2946
      8 C         139.7938  138.5108  159.3865 C.3     1  UNL1        0.0925
      9 C         139.6643  138.7160  160.8668 C.3     1  UNL1        0.1361
     10 H         140.0357  138.4563  163.4764 H       1  UNL1        0.1564
     11 H         139.6126  139.8239  157.8319 H       1  UNL1        0.1233
     12 C         139.0169  139.7417  168.2680 C.ar    1  UNL1        0.1388
     13 C         137.9740  138.9605  167.5251 C.ar    1  UNL1        0.0382
     14 C         138.1035  138.7554  166.0448 C.ar    1  UNL1        0.0178
     15 C         139.2759  139.3314  165.3075 C.ar    1  UNL1        0.0518
     16 C         140.3188  140.1125  166.0505 C.ar    1  UNL1        0.0178
     17 C         140.1894  140.3176  167.5308 C.ar    1  UNL1        0.0382
     18 C         140.1167  140.0874  170.5963 C.3     1  UNL1        0.2525
     19 O         138.8875  139.9468  169.7483 O.3     1  UNL1       -0.4714
     20 C         140.4952  137.9004  161.8125 C.3     1  UNL1        0.2265
     21 O         141.9727  137.7677  161.5895 O.3     1  UNL1       -0.4721
     22 C         142.9265  138.6495  162.3395 C.ar    1  UNL1        0.1577
     23 C         143.0070  138.5664  163.8351 C.ar    1  UNL1        0.0401
     24 C         143.9609  139.4482  164.5850 C.ar    1  UNL1        0.0238
     25 C         144.8343  140.4132  163.8395 C.ar    1  UNL1        0.0991
     26 N         144.7539  140.4964  162.3440 N.ar    1  UNL1       -0.2391
     27 C         143.8000  139.6146  161.5940 C.ar    1  UNL1        0.1356
@<TRIPOS>BOND
     1    18    19    1
     2    19    12    1
     3    12    13   ar
     4    13    14   ar
     5    14    15   ar
     6    15     1    1
     7     1     2   am
     8     2     3    2
     9     2     4   am
    10     4     5    1
    11     5     6    1
    12     6     7    1
    13     7     8    1
    14     8     9    1
    15     9    20    1
    16    20    21    1
    17    21    22    1
    18    22    23   ar
    19    23    24   ar
    20    24    25   ar
    21    25    26   ar
    22    26    27   ar
    23    15    16   ar
    24    16    17   ar
    25    17    12   ar
    26     9     4    1
    27    27    22   ar
    28     1    10    1
    29     7    11    1
