@<TRIPOS>MOLECULE
*****
 40 46 0 0 0
SMALL
GASTEIGER

@<TRIPOS>ATOM
      1 C         144.0496  139.6662  164.4030 C.3     1  UNL1        0.0955
      2 C         144.4618  141.0874  164.6485 C.3     1  UNL1        0.0287
      3 C         144.9045  141.9486  163.5029 C.3     1  UNL1        0.0193
      4 C         144.9349  141.3885  162.1117 C.3     1  UNL1        0.0700
      5 C         144.5227  139.9673  161.8662 C.3     1  UNL1        0.0193
      6 C         144.0801  139.1061  163.0118 C.3     1  UNL1        0.0287
      7 C         144.6850  140.8781  162.7077 C.3     1  UNL1        0.1562
      8 O         144.2847  140.0995  163.7435 O.3     1  UNL1       -0.3571
      9 N         145.3776  142.2496  160.9660 N.3     1  UNL1       -0.2926
     10 H         145.9497  141.6618  160.3597 H       1  UNL1        0.1236
     11 C         144.3577  142.9132  160.0889 C.3     1  UNL1        0.1152
     12 C         142.9742  143.1694  160.6088 C.ar    1  UNL1        0.0780
     13 C         141.9162  142.1141  160.4778 C.ar    1  UNL1        0.0544
     14 C         140.5328  142.3704  160.9977 C.ar    1  UNL1        0.1583
     15 C         140.2072  143.6819  161.6487 C.ar    1  UNL1        0.1586
     16 C         141.2651  144.7372  161.7797 C.ar    1  UNL1        0.1199
     17 N         142.6486  144.4809  161.2598 N.ar    1  UNL1       -0.2452
     18 S         138.8237  143.9382  162.1687 S.O2    1  UNL1        0.0168
     19 O         137.6684  144.6463  162.8116 O.2     1  UNL1       -0.1684
     20 O         139.4804  145.2394  162.5230 O.2     1  UNL1       -0.1684
     21 C         137.7659  142.8828  162.0376 C.3     1  UNL1        0.2032
     22 C         138.0915  141.5713  161.3866 C.3     1  UNL1        0.2312
     23 O         139.4749  141.3150  160.8667 O.3     1  UNL1       -0.4722
     24 C         143.6070  138.8050  165.5487 C.3     1  UNL1        0.0604
     25 O         143.4925  140.6370  170.3354 O.2     1  UNL1       -0.2670
     26 C         142.1251  140.3731  169.7782 C.ar    1  UNL1        0.2611
     27 C         140.9093  140.6485  170.6124 C.ar    1  UNL1        0.0623
     28 C         139.5419  140.3846  170.0551 C.ar    1  UNL1        0.0254
     29 C         139.3903  139.8453  168.6637 C.ar    1  UNL1        0.0972
     30 N         138.1663  139.4919  167.8592 N.ar    1  UNL1       -0.2400
     31 C         138.1714  138.9548  166.4587 C.ar    1  UNL1        0.1282
     32 C         139.4722  138.7294  165.7467 C.ar    1  UNL1        0.1588
     33 F         139.4774  138.1923  164.3462 F       1  UNL1       -0.2027
     34 C         140.7680  139.0410  166.4352 C.ar    1  UNL1        0.0500
     35 C         140.6061  139.5699  167.8295 C.ar    1  UNL1        0.0806
     36 N         141.9735  139.8338  168.3868 N.ar    1  UNL1       -0.2915
     37 C         142.9804  139.4680  167.3368 C.3     1  UNL1        0.1402
     38 C         142.2354  138.9780  166.1307 C.3     1  UNL1        0.1335
     39 O         141.7770  138.4519  164.8029 O.3     1  UNL1       -0.3806
     40 H         142.5484  138.2661  164.2450 H       1  UNL1        0.2108
@<TRIPOS>BOND
     1    25    26    2
     2    26    27   ar
     3    27    28   ar
     4    28    29   ar
     5    29    30   ar
     6    30    31   ar
     7    31    32   ar
     8    32    33    1
     9    32    34   ar
    10    34    35   ar
    11    35    36   ar
    12    36    37    1
    13    37    38    1
    14    38    39    1
    15    38    24    1
    16    24     1    1
    17     1     2    1
    18     2     3    1
    19     3     4    1
    20     4     9    1
    21     9    11    1
    22    11    12    1
    23    12    13   ar
    24    13    14   ar
    25    14    15   ar
    26    15    16   ar
    27    16    17   ar
    28    15    18    1
    29    18    19    2
    30    18    20    2
    31    18    21    1
    32    21    22    1
    33    22    23    1
    34     4     5    1
    35     5     6    1
    36     4     7    1
    37     7     8    1
    38    36    26   ar
    39     6     1    1
    40    35    29   ar
    41     8     1    1
    42    38    34    1
    43    17    12   ar
    44    23    14    1
    45    39    40    1
    46     9    10    1
@<TRIPOS>MOLECULE
*****
 40 46 0 0 0
SMALL
GASTEIGER

@<TRIPOS>ATOM
      1 C         138.4945  138.8657  164.4745 C.3     1  UNL1        0.0955
      2 C         137.9047  140.2297  164.2701 C.3     1  UNL1        0.0287
      3 C         137.6135  140.7207  162.8829 C.3     1  UNL1        0.0193
      4 C         137.9121  139.8478  161.7002 C.3     1  UNL1        0.0700
      5 C         138.5018  138.4838  161.9046 C.3     1  UNL1        0.0193
      6 C         138.7930  137.9927  163.2917 C.3     1  UNL1        0.0287
      7 C         138.0889  139.5353  162.4413 C.3     1  UNL1        0.1562
      8 O         138.3522  139.0913  163.6955 O.3     1  UNL1       -0.3571
      9 N         137.6209  140.3388  160.3131 N.3     1  UNL1       -0.2926
     10 H         136.8996  141.0549  160.3995 H       1  UNL1        0.1236
     11 C         138.7199  140.9295  159.4805 C.3     1  UNL1        0.1152
     12 C         139.8354  141.6863  160.1387 C.ar    1  UNL1        0.0780
     13 C         141.2076  141.0852  160.2135 C.ar    1  UNL1        0.0544
     14 C         142.3230  141.8421  160.8717 C.ar    1  UNL1        0.1583
     15 C         142.0661  143.1999  161.4549 C.ar    1  UNL1        0.1586
     16 C         140.6938  143.8009  161.3801 C.ar    1  UNL1        0.1199
     17 N         139.5785  143.0441  160.7219 N.ar    1  UNL1       -0.2452
     18 S         143.1815  143.9568  162.1131 S.O2    1  UNL1        0.0168
     19 O         143.9079  145.0547  162.8319 O.2     1  UNL1       -0.1684
     20 O         142.0615  144.9391  162.2879 O.2     1  UNL1       -0.1684
     21 C         144.5538  143.3556  162.1879 C.3     1  UNL1        0.2032
     22 C         144.8106  141.9978  161.6046 C.3     1  UNL1        0.2312
     23 O         143.6952  141.2410  160.9465 O.3     1  UNL1       -0.4722
     24 C         138.7857  138.3746  165.8616 C.3     1  UNL1        0.0604
     25 O         143.1214  140.7076  164.4328 O.2     1  UNL1       -0.2670
     26 C         142.6760  141.0961  165.8114 C.ar    1  UNL1        0.2611
     27 C         143.4829  142.0745  166.6124 C.ar    1  UNL1        0.0623
     28 C         143.0375  142.4630  167.9911 C.ar    1  UNL1        0.0254
     29 C         141.7851  141.8733  168.5687 C.ar    1  UNL1        0.0972
     30 N         141.1099  142.0757  169.9004 N.ar    1  UNL1       -0.2400
     31 C         139.8425  141.4066  170.3433 C.ar    1  UNL1        0.1282
     32 C         139.1425  140.4458  169.4286 C.ar    1  UNL1        0.1588
     33 F         137.8751  139.7768  169.8716 F       1  UNL1       -0.2027
     34 C         139.7097  140.1540  168.0710 C.ar    1  UNL1        0.0500
     35 C         140.9782  140.8950  167.7677 C.ar    1  UNL1        0.0806
     36 N         141.4236  140.5064  166.3891 N.ar    1  UNL1       -0.2915
     37 C         140.4304  139.5253  165.8404 C.3     1  UNL1        0.1402
     38 C         139.3712  139.3074  166.8799 C.3     1  UNL1        0.1335
     39 O         138.1896  138.8947  167.7066 O.3     1  UNL1       -0.3806
     40 H         137.6516  138.2603  167.2075 H       1  UNL1        0.2108
@<TRIPOS>BOND
     1    25    26    2
     2    26    27   ar
     3    27    28   ar
     4    28    29   ar
     5    29    30   ar
     6    30    31   ar
     7    31    32   ar
     8    32    33    1
     9    32    34   ar
    10    34    35   ar
    11    35    36   ar
    12    36    37    1
    13    37    38    1
    14    38    39    1
    15    38    24    1
    16    24     1    1
    17     1     2    1
    18     2     3    1
    19     3     4    1
    20     4     9    1
    21     9    11    1
    22    11    12    1
    23    12    13   ar
    24    13    14   ar
    25    14    15   ar
    26    15    16   ar
    27    16    17   ar
    28    15    18    1
    29    18    19    2
    30    18    20    2
    31    18    21    1
    32    21    22    1
    33    22    23    1
    34     4     5    1
    35     5     6    1
    36     4     7    1
    37     7     8    1
    38    36    26   ar
    39     6     1    1
    40    35    29   ar
    41     8     1    1
    42    38    34    1
    43    17    12   ar
    44    23    14    1
    45    39    40    1
    46     9    10    1
@<TRIPOS>MOLECULE
*****
 40 46 0 0 0
SMALL
GASTEIGER

@<TRIPOS>ATOM
      1 C         138.4334  141.8289  164.3936 C.3     1  UNL1        0.0955
      2 C         138.8057  143.0946  165.1075 C.3     1  UNL1        0.0287
      3 C         138.7647  144.4058  164.3800 C.3     1  UNL1        0.0193
      4 C         138.3515  144.4513  162.9388 C.3     1  UNL1        0.0700
      5 C         137.9792  143.1857  162.2250 C.3     1  UNL1        0.0193
      6 C         138.0202  141.8744  162.9524 C.3     1  UNL1        0.0287
      7 C         138.3587  143.7091  163.2955 C.3     1  UNL1        0.1562
      8 O         138.3957  142.5236  163.9532 O.3     1  UNL1       -0.3571
      9 N         138.3106  145.7625  162.2114 N.3     1  UNL1       -0.2926
     10 H         137.9404  146.4512  162.8664 H       1  UNL1        0.1236
     11 C         139.5701  146.3423  161.6392 C.3     1  UNL1        0.1152
     12 C         140.5002  145.4760  160.8426 C.ar    1  UNL1        0.0780
     13 C         141.5827  144.7025  161.5354 C.ar    1  UNL1        0.0544
     14 C         142.5128  143.8362  160.7388 C.ar    1  UNL1        0.1583
     15 C         142.3603  143.7434  159.2495 C.ar    1  UNL1        0.1586
     16 C         141.2778  144.5169  158.5567 C.ar    1  UNL1        0.1199
     17 N         140.3478  145.3831  159.3533 N.ar    1  UNL1       -0.2452
     18 S         143.2904  142.8771  158.4529 S.O2    1  UNL1        0.0168
     19 O         143.9205  142.1975  157.2736 O.2     1  UNL1       -0.1684
     20 O         142.4267  143.4146  157.3505 O.2     1  UNL1       -0.1684
     21 C         144.3729  142.1037  159.1458 C.3     1  UNL1        0.2032
     22 C         144.5253  142.1965  160.6350 C.3     1  UNL1        0.2312
     23 O         143.5952  143.0628  161.4316 O.3     1  UNL1       -0.4722
     24 C         138.4743  140.5177  165.1210 C.3     1  UNL1        0.0604
     25 O         138.8638  140.8253  170.2236 O.2     1  UNL1       -0.2670
     26 C         140.0859  140.2418  169.5786 C.ar    1  UNL1        0.2611
     27 C         141.2515  139.8210  170.4237 C.ar    1  UNL1        0.0623
     28 C         142.4736  139.2374  169.7788 C.ar    1  UNL1        0.0254
     29 C         142.5301  139.0747  168.2887 C.ar    1  UNL1        0.0972
     30 N         143.6059  138.5298  167.3853 N.ar    1  UNL1       -0.2400
     31 C         143.5179  138.4285  165.8914 C.ar    1  UNL1        0.1282
     32 C         142.2815  138.8920  165.1798 C.ar    1  UNL1        0.1588
     33 F         142.1936  138.7908  163.6858 F       1  UNL1       -0.2027
     34 C         141.1330  139.4568  165.9621 C.ar    1  UNL1        0.0500
     35 C         141.3644  139.4955  167.4436 C.ar    1  UNL1        0.0806
     36 N         140.1424  140.0790  168.0886 N.ar    1  UNL1       -0.2915
     37 C         139.1557  140.4010  167.0056 C.3     1  UNL1        0.1402
     38 C         139.7680  140.0165  165.6914 C.3     1  UNL1        0.1335
     39 O         140.1098  139.7367  164.2579 O.3     1  UNL1       -0.3806
     40 H         139.3686  140.0016  163.6911 H       1  UNL1        0.2108
@<TRIPOS>BOND
     1    25    26    2
     2    26    27   ar
     3    27    28   ar
     4    28    29   ar
     5    29    30   ar
     6    30    31   ar
     7    31    32   ar
     8    32    33    1
     9    32    34   ar
    10    34    35   ar
    11    35    36   ar
    12    36    37    1
    13    37    38    1
    14    38    39    1
    15    38    24    1
    16    24     1    1
    17     1     2    1
    18     2     3    1
    19     3     4    1
    20     4     9    1
    21     9    11    1
    22    11    12    1
    23    12    13   ar
    24    13    14   ar
    25    14    15   ar
    26    15    16   ar
    27    16    17   ar
    28    15    18    1
    29    18    19    2
    30    18    20    2
    31    18    21    1
    32    21    22    1
    33    22    23    1
    34     4     5    1
    35     5     6    1
    36     4     7    1
    37     7     8    1
    38    36    26   ar
    39     6     1    1
    40    35    29   ar
    41     8     1    1
    42    38    34    1
    43    17    12   ar
    44    23    14    1
    45    39    40    1
    46     9    10    1
@<TRIPOS>MOLECULE
*****
 40 46 0 0 0
SMALL
GASTEIGER

@<TRIPOS>ATOM
      1 C         138.5737  139.0100  164.0994 C.3     1  UNL1        0.0955
      2 C         137.9468  140.3202  163.7245 C.3     1  UNL1        0.0287
      3 C         137.5598  140.5862  162.2999 C.3     1  UNL1        0.0193
      4 C         137.7997  139.5419  161.2501 C.3     1  UNL1        0.0700
      5 C         138.4266  138.2318  161.6250 C.3     1  UNL1        0.0193
      6 C         138.8136  137.9658  163.0496 C.3     1  UNL1        0.0287
      7 C         138.0286  139.3505  162.0176 C.3     1  UNL1        0.1562
      8 O         138.3785  139.1100  163.3057 O.3     1  UNL1       -0.3571
      9 N         137.4127  139.8079  159.8255 N.3     1  UNL1       -0.2926
     10 H         136.4946  140.2519  159.8477 H       1  UNL1        0.1236
     11 C         138.2870  140.6642  158.9583 C.3     1  UNL1        0.1152
     12 C         139.4743  141.3647  159.5497 C.ar    1  UNL1        0.0780
     13 C         140.7305  140.5976  159.8386 C.ar    1  UNL1        0.0544
     14 C         141.9178  141.2981  160.4300 C.ar    1  UNL1        0.1583
     15 C         141.8488  142.7656  160.7325 C.ar    1  UNL1        0.1586
     16 C         140.5926  143.5327  160.4435 C.ar    1  UNL1        0.1199
     17 N         139.4054  142.8322  159.8521 N.ar    1  UNL1       -0.2452
     18 S         143.0361  143.4661  161.3239 S.O2    1  UNL1        0.0168
     19 O         143.8901  144.5655  161.8822 O.2     1  UNL1       -0.1684
     20 O         142.0764  144.6150  161.2288 O.2     1  UNL1       -0.1684
     21 C         144.2923  142.6989  161.6128 C.3     1  UNL1        0.2032
     22 C         144.3612  141.2314  161.3104 C.3     1  UNL1        0.2312
     23 O         143.1739  140.5309  160.7190 O.3     1  UNL1       -0.4722
     24 C         138.9607  138.7441  165.5240 C.3     1  UNL1        0.0604
     25 O         137.8700  139.8648  170.4063 O.2     1  UNL1       -0.2670
     26 C         139.1430  140.5004  169.9315 C.ar    1  UNL1        0.2611
     27 C         139.9455  141.3592  170.8633 C.ar    1  UNL1        0.0623
     28 C         141.2185  141.9948  170.3885 C.ar    1  UNL1        0.0254
     29 C         141.6890  141.7716  168.9818 C.ar    1  UNL1        0.0972
     30 N         142.9042  142.2731  168.2455 N.ar    1  UNL1       -0.2400
     31 C         143.2469  141.9609  166.8190 C.ar    1  UNL1        0.1282
     32 C         142.3436  141.0819  166.0058 C.ar    1  UNL1        0.1588
     33 F         142.6862  140.7697  164.5792 F       1  UNL1       -0.2027
     34 C         141.0975  140.5151  166.6191 C.ar    1  UNL1        0.0500
     35 C         140.8865  140.9128  168.0500 C.ar    1  UNL1        0.0806
     36 N         139.6135  140.2772  168.5248 N.ar    1  UNL1       -0.2915
     37 C         139.0378  139.4866  167.3874 C.3     1  UNL1        0.1402
     38 C         139.9550  139.6336  166.2096 C.3     1  UNL1        0.1335
     39 O         140.6644  139.5947  164.8886 O.3     1  UNL1       -0.3806
     40 H         140.1623  139.0435  164.2681 H       1  UNL1        0.2108
@<TRIPOS>BOND
     1    25    26    2
     2    26    27   ar
     3    27    28   ar
     4    28    29   ar
     5    29    30   ar
     6    30    31   ar
     7    31    32   ar
     8    32    33    1
     9    32    34   ar
    10    34    35   ar
    11    35    36   ar
    12    36    37    1
    13    37    38    1
    14    38    39    1
    15    38    24    1
    16    24     1    1
    17     1     2    1
    18     2     3    1
    19     3     4    1
    20     4     9    1
    21     9    11    1
    22    11    12    1
    23    12    13   ar
    24    13    14   ar
    25    14    15   ar
    26    15    16   ar
    27    16    17   ar
    28    15    18    1
    29    18    19    2
    30    18    20    2
    31    18    21    1
    32    21    22    1
    33    22    23    1
    34     4     5    1
    35     5     6    1
    36     4     7    1
    37     7     8    1
    38    36    26   ar
    39     6     1    1
    40    35    29   ar
    41     8     1    1
    42    38    34    1
    43    17    12   ar
    44    23    14    1
    45    39    40    1
    46     9    10    1
@<TRIPOS>MOLECULE
*****
 40 46 0 0 0
SMALL
GASTEIGER

@<TRIPOS>ATOM
      1 C         144.6161  141.4573  161.9539 C.3     1  UNL1        0.0955
      2 C         143.8048  140.1956  161.9519 C.3     1  UNL1        0.0287
      3 C         143.8589  139.2673  163.1289 C.3     1  UNL1        0.0193
      4 C         144.7243  139.6006  164.3078 C.3     1  UNL1        0.0700
      5 C         145.5356  140.8622  164.3098 C.3     1  UNL1        0.0193
      6 C         145.4816  141.7906  163.1328 C.3     1  UNL1        0.0287
      7 C         144.7272  140.1402  163.6859 C.3     1  UNL1        0.1562
      8 O         144.6783  140.9796  162.6217 O.3     1  UNL1       -0.3571
      9 N         144.7784  138.6723  165.4848 N.3     1  UNL1       -0.2926
     10 H         145.3603  139.1245  166.1901 H       1  UNL1        0.1236
     11 C         143.5110  138.2564  166.1708 C.3     1  UNL1        0.1152
     12 C         142.9307  139.1124  167.2574 C.ar    1  UNL1        0.0780
     13 C         142.1952  140.3720  166.9078 C.ar    1  UNL1        0.0544
     14 C         141.6149  141.2279  167.9944 C.ar    1  UNL1        0.1583
     15 C         141.7700  140.8241  169.4307 C.ar    1  UNL1        0.1586
     16 C         142.5055  139.5644  169.7803 C.ar    1  UNL1        0.1199
     17 N         143.0858  138.7085  168.6937 N.ar    1  UNL1       -0.2452
     18 S         141.1897  141.6800  170.5173 S.O2    1  UNL1        0.0168
     19 O         140.8203  142.1558  171.8909 O.2     1  UNL1       -0.1684
     20 O         141.7969  140.5855  171.3440 O.2     1  UNL1       -0.1684
     21 C         140.4542  142.9397  170.1675 C.3     1  UNL1        0.2032
     22 C         140.2992  143.3434  168.7313 C.3     1  UNL1        0.2312
     23 O         140.8795  142.4876  167.6447 O.3     1  UNL1       -0.4722
     24 C         144.5620  142.3856  160.7769 C.3     1  UNL1        0.0604
     25 O         143.0335  142.7465  155.8967 O.2     1  UNL1       -0.2670
     26 C         142.1686  143.5299  156.8392 C.ar    1  UNL1        0.2611
     27 C         140.9990  144.3078  156.3129 C.ar    1  UNL1        0.0623
     28 C         140.1341  145.0912  157.2553 C.ar    1  UNL1        0.0254
     29 C         140.4388  145.0968  158.7240 C.ar    1  UNL1        0.0972
     30 N         139.7567  145.7795  159.8812 N.ar    1  UNL1       -0.2400
     31 C         140.1825  145.6908  161.3168 C.ar    1  UNL1        0.1282
     32 C         141.3795  144.8696  161.6946 C.ar    1  UNL1        0.1588
     33 F         141.8053  144.7810  163.1302 F       1  UNL1       -0.2027
     34 C         142.1507  144.1371  160.6369 C.ar    1  UNL1        0.0500
     35 C         141.6084  144.3190  159.2503 C.ar    1  UNL1        0.0806
     36 N         142.4733  143.5356  158.3079 N.ar    1  UNL1       -0.2915
     37 C         143.5501  142.8694  159.1121 C.3     1  UNL1        0.1402
     38 C         143.3507  143.2412  160.5515 C.3     1  UNL1        0.1335
     39 O         143.4046  143.4341  162.0381 O.3     1  UNL1       -0.3806
     40 H         144.1553  142.9388  162.4014 H       1  UNL1        0.2108
@<TRIPOS>BOND
     1    25    26    2
     2    26    27   ar
     3    27    28   ar
     4    28    29   ar
     5    29    30   ar
     6    30    31   ar
     7    31    32   ar
     8    32    33    1
     9    32    34   ar
    10    34    35   ar
    11    35    36   ar
    12    36    37    1
    13    37    38    1
    14    38    39    1
    15    38    24    1
    16    24     1    1
    17     1     2    1
    18     2     3    1
    19     3     4    1
    20     4     9    1
    21     9    11    1
    22    11    12    1
    23    12    13   ar
    24    13    14   ar
    25    14    15   ar
    26    15    16   ar
    27    16    17   ar
    28    15    18    1
    29    18    19    2
    30    18    20    2
    31    18    21    1
    32    21    22    1
    33    22    23    1
    34     4     5    1
    35     5     6    1
    36     4     7    1
    37     7     8    1
    38    36    26   ar
    39     6     1    1
    40    35    29   ar
    41     8     1    1
    42    38    34    1
    43    17    12   ar
    44    23    14    1
    45    39    40    1
    46     9    10    1
@<TRIPOS>MOLECULE
*****
 40 46 0 0 0
SMALL
GASTEIGER

@<TRIPOS>ATOM
      1 C         142.8618  143.2835  164.3612 C.3     1  UNL1        0.0955
      2 C         141.7417  144.2813  164.3633 C.3     1  UNL1        0.0287
      3 C         141.3819  145.0075  163.1011 C.3     1  UNL1        0.0193
      4 C         142.1421  144.7359  161.8368 C.3     1  UNL1        0.0700
      5 C         143.2621  143.7382  161.8348 C.3     1  UNL1        0.0193
      6 C         143.6220  143.0119  163.0970 C.3     1  UNL1        0.0287
      7 C         142.3758  144.3134  162.5038 C.3     1  UNL1        0.1562
      8 O         142.7012  143.6567  163.6451 O.3     1  UNL1       -0.3571
      9 N         141.7822  145.4621  160.5746 N.3     1  UNL1       -0.2926
     10 H         142.6388  145.5426  160.0267 H       1  UNL1        0.1236
     11 C         140.7341  144.9015  159.6597 C.3     1  UNL1        0.1152
     12 C         140.1010  143.5768  159.9670 C.ar    1  UNL1        0.0780
     13 C         140.7378  142.3097  159.4780 C.ar    1  UNL1        0.0544
     14 C         140.1047  140.9850  159.7854 C.ar    1  UNL1        0.1583
     15 C         138.8348  140.9274  160.5817 C.ar    1  UNL1        0.1586
     16 C         138.1981  142.1945  161.0707 C.ar    1  UNL1        0.1199
     17 N         138.8312  143.5192  160.7634 N.ar    1  UNL1       -0.2452
     18 S         138.2017  139.6028  160.8891 S.O2    1  UNL1        0.0168
     19 O         137.2304  138.5969  161.4317 O.2     1  UNL1       -0.1684
     20 O         137.2276  140.5205  161.5666 O.2     1  UNL1       -0.1684
     21 C         138.8386  138.3357  160.4000 C.3     1  UNL1        0.2032
     22 C         140.1083  138.3934  159.6037 C.3     1  UNL1        0.2312
     23 O         140.7414  139.7181  159.2964 O.3     1  UNL1       -0.4722
     24 C         143.2217  142.5573  165.6234 C.3     1  UNL1        0.0604
     25 O         143.1378  143.5225  170.6577 O.2     1  UNL1       -0.2670
     26 C         142.0827  142.5446  170.2328 C.ar    1  UNL1        0.2611
     27 C         141.1458  141.9631  171.2497 C.ar    1  UNL1        0.0623
     28 C         140.0908  140.9853  170.8248 C.ar    1  UNL1        0.0254
     29 C         139.9726  140.5888  169.3830 C.ar    1  UNL1        0.0972
     30 N         139.0278  139.6473  168.6820 N.ar    1  UNL1       -0.2400
     31 C         139.0305  139.3471  167.2124 C.ar    1  UNL1        0.1282
     32 C         140.0331  140.0083  166.3137 C.ar    1  UNL1        0.1588
     33 F         140.0358  139.7082  164.8441 F       1  UNL1       -0.2027
     34 C         141.0330  140.9697  166.8847 C.ar    1  UNL1        0.0500
     35 C         140.9095  141.1703  168.3661 C.ar    1  UNL1        0.0806
     36 N         141.9645  142.1482  168.7910 N.ar    1  UNL1       -0.2915
     37 C         142.7401  142.5519  167.5722 C.3     1  UNL1        0.1402
     38 C         142.1644  141.8236  166.3940 C.3     1  UNL1        0.1335
     39 O         141.8097  141.2486  165.0548 O.3     1  UNL1       -0.3806
     40 H         142.4041  141.6114  164.3795 H       1  UNL1        0.2108
@<TRIPOS>BOND
     1    25    26    2
     2    26    27   ar
     3    27    28   ar
     4    28    29   ar
     5    29    30   ar
     6    30    31   ar
     7    31    32   ar
     8    32    33    1
     9    32    34   ar
    10    34    35   ar
    11    35    36   ar
    12    36    37    1
    13    37    38    1
    14    38    39    1
    15    38    24    1
    16    24     1    1
    17     1     2    1
    18     2     3    1
    19     3     4    1
    20     4     9    1
    21     9    11    1
    22    11    12    1
    23    12    13   ar
    24    13    14   ar
    25    14    15   ar
    26    15    16   ar
    27    16    17   ar
    28    15    18    1
    29    18    19    2
    30    18    20    2
    31    18    21    1
    32    21    22    1
    33    22    23    1
    34     4     5    1
    35     5     6    1
    36     4     7    1
    37     7     8    1
    38    36    26   ar
    39     6     1    1
    40    35    29   ar
    41     8     1    1
    42    38    34    1
    43    17    12   ar
    44    23    14    1
    45    39    40    1
    46     9    10    1
@<TRIPOS>MOLECULE
*****
 40 46 0 0 0
SMALL
GASTEIGER

@<TRIPOS>ATOM
      1 C         144.8080  141.4400  161.9072 C.3     1  UNL1        0.0955
      2 C         144.1471  140.0979  161.7975 C.3     1  UNL1        0.0287
      3 C         144.1232  139.1747  162.9795 C.3     1  UNL1        0.0193
      4 C         144.7602  139.5937  164.2713 C.3     1  UNL1        0.0700
      5 C         145.4211  140.9357  164.3810 C.3     1  UNL1        0.0193
      6 C         145.4450  141.8590  163.1990 C.3     1  UNL1        0.0287
      7 C         144.7985  140.1337  163.6508 C.3     1  UNL1        0.1562
      8 O         144.8201  140.9684  162.5821 O.3     1  UNL1       -0.3571
      9 N         144.7363  138.6705  165.4534 N.3     1  UNL1       -0.2926
     10 H         145.3074  139.1053  166.1781 H       1  UNL1        0.1236
     11 C         143.4298  138.3047  166.0929 C.3     1  UNL1        0.1152
     12 C         142.8751  139.1490  167.2018 C.ar    1  UNL1        0.0780
     13 C         142.1365  140.4150  166.8831 C.ar    1  UNL1        0.0544
     14 C         141.5819  141.2592  167.9921 C.ar    1  UNL1        0.1583
     15 C         141.7660  140.8374  169.4197 C.ar    1  UNL1        0.1586
     16 C         142.5046  139.5714  169.7384 C.ar    1  UNL1        0.1199
     17 N         143.0592  138.7272  168.6295 N.ar    1  UNL1       -0.2452
     18 S         141.2114  141.6816  170.5287 S.O2    1  UNL1        0.0168
     19 O         140.8724  142.1417  171.9155 O.2     1  UNL1       -0.1684
     20 O         141.8324  140.5754  171.3290 O.2     1  UNL1       -0.1684
     21 C         140.4727  142.9477  170.2098 C.3     1  UNL1        0.2032
     22 C         140.2887  143.3694  168.7822 C.3     1  UNL1        0.2312
     23 O         140.8433  142.5252  167.6733 O.3     1  UNL1       -0.4722
     24 C         144.8319  142.3632  160.7252 C.3     1  UNL1        0.0604
     25 O         142.3641  145.3485  164.0838 O.2     1  UNL1       -0.2670
     26 C         141.6586  145.2472  162.7639 C.ar    1  UNL1        0.2611
     27 C         140.3687  145.9806  162.5447 C.ar    1  UNL1        0.0623
     28 C         139.6632  145.8793  161.2248 C.ar    1  UNL1        0.0254
     29 C         140.2477  145.0445  160.1242 C.ar    1  UNL1        0.0972
     30 N         139.7685  144.7645  158.7233 N.ar    1  UNL1       -0.2400
     31 C         140.4702  143.8961  157.7216 C.ar    1  UNL1        0.1282
     32 C         141.7603  143.2231  158.0857 C.ar    1  UNL1        0.1588
     33 F         142.4620  142.3547  157.0840 F       1  UNL1       -0.2027
     34 C         142.3488  143.4185  159.4515 C.ar    1  UNL1        0.0500
     35 C         141.5376  144.3110  160.3434 C.ar    1  UNL1        0.0806
     36 N         142.2431  144.4123  161.6633 N.ar    1  UNL1       -0.2915
     37 C         143.4903  143.5825  161.5871 C.3     1  UNL1        0.1402
     38 C         143.5556  142.9683  160.2202 C.3     1  UNL1        0.1335
     39 O         143.8878  142.2276  158.9588 O.3     1  UNL1       -0.3806
     40 H         144.7205  141.7444  159.0773 H       1  UNL1        0.2108
@<TRIPOS>BOND
     1    25    26    2
     2    26    27   ar
     3    27    28   ar
     4    28    29   ar
     5    29    30   ar
     6    30    31   ar
     7    31    32   ar
     8    32    33    1
     9    32    34   ar
    10    34    35   ar
    11    35    36   ar
    12    36    37    1
    13    37    38    1
    14    38    39    1
    15    38    24    1
    16    24     1    1
    17     1     2    1
    18     2     3    1
    19     3     4    1
    20     4     9    1
    21     9    11    1
    22    11    12    1
    23    12    13   ar
    24    13    14   ar
    25    14    15   ar
    26    15    16   ar
    27    16    17   ar
    28    15    18    1
    29    18    19    2
    30    18    20    2
    31    18    21    1
    32    21    22    1
    33    22    23    1
    34     4     5    1
    35     5     6    1
    36     4     7    1
    37     7     8    1
    38    36    26   ar
    39     6     1    1
    40    35    29   ar
    41     8     1    1
    42    38    34    1
    43    17    12   ar
    44    23    14    1
    45    39    40    1
    46     9    10    1
@<TRIPOS>MOLECULE
*****
 40 46 0 0 0
SMALL
GASTEIGER

@<TRIPOS>ATOM
      1 C         138.2842  141.7818  164.7510 C.3     1  UNL1        0.0955
      2 C         138.2150  140.3382  165.1529 C.3     1  UNL1        0.0287
      3 C         139.1084  139.8186  166.2400 C.3     1  UNL1        0.0193
      4 C         140.0710  140.7426  166.9254 C.3     1  UNL1        0.0700
      5 C         140.1402  142.1861  166.5235 C.3     1  UNL1        0.0193
      6 C         139.2469  142.7057  165.4363 C.3     1  UNL1        0.0287
      7 C         139.6015  141.0733  166.3352 C.3     1  UNL1        0.1562
      8 O         138.7938  141.5431  165.3522 O.3     1  UNL1       -0.3571
      9 N         140.9644  140.2231  168.0125 N.3     1  UNL1       -0.2926
     10 H         140.4505  139.4801  168.4861 H       1  UNL1        0.1236
     11 C         142.3147  139.6660  167.6714 C.3     1  UNL1        0.1152
     12 C         142.7529  139.5858  166.2390 C.ar    1  UNL1        0.0780
     13 C         143.3835  140.7764  165.5797 C.ar    1  UNL1        0.0544
     14 C         143.8217  140.6961  164.1474 C.ar    1  UNL1        0.1583
     15 C         143.6292  139.4251  163.3744 C.ar    1  UNL1        0.1586
     16 C         142.9986  138.2345  164.0337 C.ar    1  UNL1        0.1199
     17 N         142.5604  138.3148  165.4660 N.ar    1  UNL1       -0.2452
     18 S         144.0673  139.3448  161.9420 S.O2    1  UNL1        0.0168
     19 O         144.3165  138.7833  160.5737 O.2     1  UNL1       -0.1684
     20 O         143.5233  137.9591  162.1261 O.2     1  UNL1       -0.1684
     21 C         144.6980  140.5355  161.2828 C.3     1  UNL1        0.2032
     22 C         144.8904  141.8064  162.0559 C.3     1  UNL1        0.2312
     23 O         144.4523  141.8867  163.4882 O.3     1  UNL1       -0.4722
     24 C         137.3909  142.3013  163.6638 C.3     1  UNL1        0.0604
     25 O         140.2707  146.1981  161.9894 O.2     1  UNL1       -0.2670
     26 C         140.0160  145.1640  160.9331 C.ar    1  UNL1        0.2611
     27 C         140.5876  145.3404  159.5575 C.ar    1  UNL1        0.0623
     28 C         140.3328  144.3063  158.5012 C.ar    1  UNL1        0.0254
     29 C         139.5065  143.0959  158.8204 C.ar    1  UNL1        0.0972
     30 N         139.0950  141.9183  157.9752 N.ar    1  UNL1       -0.2400
     31 C         138.2541  140.7663  158.4394 C.ar    1  UNL1        0.1282
     32 C         137.7508  140.7263  159.8519 C.ar    1  UNL1        0.1588
     33 F         136.9099  139.5743  160.3162 F       1  UNL1       -0.2027
     34 C         138.0886  141.8385  160.8002 C.ar    1  UNL1        0.0500
     35 C         138.9349  142.9195  160.1960 C.ar    1  UNL1        0.0806
     36 N         139.1896  143.9536  161.2523 N.ar    1  UNL1       -0.2915
     37 C         138.5007  143.5116  162.5093 C.3     1  UNL1        0.1402
     38 C         137.8202  142.2044  162.2299 C.3     1  UNL1        0.1335
     39 O         137.0499  140.9174  162.2502 O.3     1  UNL1       -0.3806
     40 H         136.6701  140.7819  163.1324 H       1  UNL1        0.2108
@<TRIPOS>BOND
     1    25    26    2
     2    26    27   ar
     3    27    28   ar
     4    28    29   ar
     5    29    30   ar
     6    30    31   ar
     7    31    32   ar
     8    32    33    1
     9    32    34   ar
    10    34    35   ar
    11    35    36   ar
    12    36    37    1
    13    37    38    1
    14    38    39    1
    15    38    24    1
    16    24     1    1
    17     1     2    1
    18     2     3    1
    19     3     4    1
    20     4     9    1
    21     9    11    1
    22    11    12    1
    23    12    13   ar
    24    13    14   ar
    25    14    15   ar
    26    15    16   ar
    27    16    17   ar
    28    15    18    1
    29    18    19    2
    30    18    20    2
    31    18    21    1
    32    21    22    1
    33    22    23    1
    34     4     5    1
    35     5     6    1
    36     4     7    1
    37     7     8    1
    38    36    26   ar
    39     6     1    1
    40    35    29   ar
    41     8     1    1
    42    38    34    1
    43    17    12   ar
    44    23    14    1
    45    39    40    1
    46     9    10    1
@<TRIPOS>MOLECULE
*****
 40 46 0 0 0
SMALL
GASTEIGER

@<TRIPOS>ATOM
      1 C         142.1734  137.9469  162.5596 C.3     1  UNL1        0.0955
      2 C         140.7614  137.7505  162.0927 C.3     1  UNL1        0.0287
      3 C         139.6315  137.8044  163.0777 C.3     1  UNL1        0.0193
      4 C         139.9134  138.0547  164.5296 C.3     1  UNL1        0.0700
      5 C         141.3253  138.2511  164.9964 C.3     1  UNL1        0.0193
      6 C         142.4554  138.1973  164.0114 C.3     1  UNL1        0.0287
      7 C         140.5655  138.0339  164.0271 C.3     1  UNL1        0.1562
      8 O         141.5872  137.9851  163.1365 O.3     1  UNL1       -0.3571
      9 N         138.7834  138.1086  165.5146 N.3     1  UNL1       -0.2926
     10 H         139.1402  137.7321  166.3929 H       1  UNL1        0.1236
     11 C         138.1328  139.4207  165.8384 C.3     1  UNL1        0.1152
     12 C         138.4050  140.6238  164.9848 C.ar    1  UNL1        0.0780
     13 C         139.5122  141.5676  165.3498 C.ar    1  UNL1        0.0544
     14 C         139.7843  142.7705  164.4961 C.ar    1  UNL1        0.1583
     15 C         138.9492  143.0297  163.2773 C.ar    1  UNL1        0.1586
     16 C         137.8420  142.0859  162.9123 C.ar    1  UNL1        0.1199
     17 N         137.5699  140.8829  163.7660 N.ar    1  UNL1       -0.2452
     18 S         139.2213  144.2327  162.4236 S.O2    1  UNL1        0.0168
     19 O         139.0935  145.2279  161.3087 O.2     1  UNL1       -0.1684
     20 O         138.0696  143.6345  161.6713 O.2     1  UNL1       -0.1684
     21 C         140.3286  145.1765  162.7887 C.3     1  UNL1        0.2032
     22 C         141.1636  144.9172  164.0074 C.3     1  UNL1        0.2312
     23 O         140.8915  143.7143  164.8612 O.3     1  UNL1       -0.4722
     24 C         143.3034  137.8931  161.5745 C.3     1  UNL1        0.0604
     25 O         142.0999  136.4266  156.8118 O.2     1  UNL1       -0.2670
     26 C         142.5252  137.8628  156.8908 C.ar    1  UNL1        0.2611
     27 C         142.5625  138.7034  155.6491 C.ar    1  UNL1        0.0623
     28 C         142.9878  140.1397  155.7281 C.ar    1  UNL1        0.0254
     29 C         143.3758  140.7354  157.0488 C.ar    1  UNL1        0.0972
     30 N         143.8348  142.1214  157.4212 N.ar    1  UNL1       -0.2400
     31 C         144.1928  142.5765  158.8049 C.ar    1  UNL1        0.1282
     32 C         144.1066  141.6179  159.9554 C.ar    1  UNL1        0.1588
     33 F         144.4646  142.0729  161.3391 F       1  UNL1       -0.2027
     34 C         143.6625  140.2042  159.7222 C.ar    1  UNL1        0.0500
     35 C         143.3385  139.8948  158.2906 C.ar    1  UNL1        0.0806
     36 N         142.9132  138.4586  158.2116 N.ar    1  UNL1       -0.2915
     37 C         142.9744  137.8803  159.5943 C.3     1  UNL1        0.1402
     38 C         143.4375  138.9592  160.5279 C.3     1  UNL1        0.1335
     39 O         143.8725  139.8152  161.6803 O.3     1  UNL1       -0.3806
     40 H         143.8563  139.2913  162.4965 H       1  UNL1        0.2108
@<TRIPOS>BOND
     1    25    26    2
     2    26    27   ar
     3    27    28   ar
     4    28    29   ar
     5    29    30   ar
     6    30    31   ar
     7    31    32   ar
     8    32    33    1
     9    32    34   ar
    10    34    35   ar
    11    35    36   ar
    12    36    37    1
    13    37    38    1
    14    38    39    1
    15    38    24    1
    16    24     1    1
    17     1     2    1
    18     2     3    1
    19     3     4    1
    20     4     9    1
    21     9    11    1
    22    11    12    1
    23    12    13   ar
    24    13    14   ar
    25    14    15   ar
    26    15    16   ar
    27    16    17   ar
    28    15    18    1
    29    18    19    2
    30    18    20    2
    31    18    21    1
    32    21    22    1
    33    22    23    1
    34     4     5    1
    35     5     6    1
    36     4     7    1
    37     7     8    1
    38    36    26   ar
    39     6     1    1
    40    35    29   ar
    41     8     1    1
    42    38    34    1
    43    17    12   ar
    44    23    14    1
    45    39    40    1
    46     9    10    1
