@<TRIPOS>MOLECULE
*****
 33 38 0 0 0
SMALL
GASTEIGER

@<TRIPOS>ATOM
      1 C         138.4869  142.2760  160.8160 C.ar    1  UNL1        0.0625
      2 C         138.4271  142.3616  159.3197 C.ar    1  UNL1        0.0158
      3 C         138.3621  141.1079  158.4987 C.ar    1  UNL1        0.0014
      4 C         138.3568  139.7686  159.1741 C.ar    1  UNL1        0.0016
      5 C         138.4166  139.6830  160.6705 C.ar    1  UNL1        0.0189
      6 C         138.4113  138.3437  161.3459 C.ar    1  UNL1        0.0032
      7 C         138.4710  138.2580  162.8422 C.ar    1  UNL1        0.0223
      8 C         138.5361  139.5117  163.6632 C.ar    1  UNL1        0.1188
      9 N         138.5414  140.8510  162.9879 N.ar    1  UNL1       -0.2410
     10 C         138.4816  140.9367  161.4914 C.ar    1  UNL1        0.0944
     11 C         138.5958  139.4261  165.1596 C.ar    1  UNL1        0.2041
     12 N         137.6334  138.6847  166.0394 N.ar    1  UNL1       -0.1253
     13 N         138.0713  138.8673  167.4625 N.ar    1  UNL1       -0.1237
     14 C         139.3043  139.7215  167.4620 C.ar    1  UNL1        0.2218
     15 C         140.1737  140.2294  168.5739 C.ar    1  UNL1        0.1907
     16 C         141.3674  141.0828  168.2624 C.ar    1  UNL1        0.1067
     17 C         141.6916  141.4281  166.8391 C.ar    1  UNL1        0.1382
     18 N         140.8221  140.9202  165.7274 N.ar    1  UNL1       -0.1592
     19 N         139.6285  140.0668  166.0388 N.ar    1  UNL1       -0.1869
     20 N         142.2368  141.5907  169.3741 N.pl3   1  UNL1       -0.2987
     21 C         143.4305  142.4441  169.0626 C.3     1  UNL1        0.1124
     22 C         141.9126  141.2453  170.7973 C.3     1  UNL1        0.1387
     23 C         140.7190  140.3920  171.1088 C.3     1  UNL1        0.2269
     24 O         139.8495  139.8840  169.9971 O.3     1  UNL1       -0.4692
     25 N         138.5519  143.5297  161.6371 N.pl3   1  UNL1       -0.3328
     26 H         137.7404  144.0692  161.7769 H       1  UNL1        0.1468
     27 C         143.7582  145.2562  164.0688 C.3     1  UNL1        0.0896
     28 N         142.4567  144.8246  163.4609 N.3     1  UNL1       -0.2714
     29 C         141.2136  144.7854  164.2995 C.3     1  UNL1        0.0738
     30 C         139.9121  144.3538  163.6916 C.3     1  UNL1        0.0368
     31 C         139.8535  143.9613  162.2450 C.3     1  UNL1        0.0718
     32 C         141.0966  144.0005  161.4063 C.3     1  UNL1        0.0368
     33 C         142.3982  144.4321  162.0143 C.3     1  UNL1        0.0738
@<TRIPOS>BOND
     1    27    28    1
     2    28    29    1
     3    29    30    1
     4    30    31    1
     5    31    25    1
     6    25     1    1
     7     1     2   ar
     8     2     3   ar
     9     3     4   ar
    10     4     5   ar
    11     5     6   ar
    12     6     7   ar
    13     7     8   ar
    14     8    11    1
    15    11    12   ar
    16    12    13   ar
    17    13    14   ar
    18    14    15   ar
    19    15    16   ar
    20    16    17   ar
    21    17    18   ar
    22    18    19   ar
    23    16    20    1
    24    20    21    1
    25    20    22    1
    26    22    23    1
    27    23    24    1
    28     8     9   ar
    29     9    10   ar
    30    31    32    1
    31    32    33    1
    32    33    28    1
    33    10     1   ar
    34    10     5   ar
    35    19    11   ar
    36    19    14   ar
    37    24    15    1
    38    25    26    1
@<TRIPOS>MOLECULE
*****
 33 38 0 0 0
SMALL
GASTEIGER

@<TRIPOS>ATOM
      1 C         141.0351  141.6794  167.3384 C.ar    1  UNL1        0.0625
      2 C         141.1109  141.9998  168.8018 C.ar    1  UNL1        0.0158
      3 C         140.2085  141.2959  169.7715 C.ar    1  UNL1        0.0014
      4 C         139.2301  140.2717  169.2777 C.ar    1  UNL1        0.0016
      5 C         139.1543  139.9513  167.8143 C.ar    1  UNL1        0.0189
      6 C         138.1759  138.9271  167.3205 C.ar    1  UNL1        0.0032
      7 C         138.1000  138.6066  165.8572 C.ar    1  UNL1        0.0223
      8 C         139.0025  139.3105  164.8875 C.ar    1  UNL1        0.1188
      9 N         139.9808  140.3346  165.3812 N.ar    1  UNL1       -0.2410
     10 C         140.0567  140.6551  166.8447 C.ar    1  UNL1        0.0944
     11 C         138.9266  138.9900  163.4240 C.ar    1  UNL1        0.2041
     12 N         138.6963  137.6323  162.8295 N.ar    1  UNL1       -0.1253
     13 N         138.6951  137.7743  161.3363 N.ar    1  UNL1       -0.1237
     14 C         138.9246  139.2197  161.0079 C.ar    1  UNL1        0.2218
     15 C         139.0218  139.9489  159.7006 C.ar    1  UNL1        0.1907
     16 C         139.2621  141.4294  159.6837 C.ar    1  UNL1        0.1067
     17 C         139.4052  142.1808  160.9741 C.ar    1  UNL1        0.1382
     18 N         139.3080  141.4517  162.2813 N.ar    1  UNL1       -0.1592
     19 N         139.0677  139.9711  162.2982 N.ar    1  UNL1       -0.1869
     20 N         139.3593  142.1585  158.3765 N.pl3   1  UNL1       -0.2987
     21 C         139.5996  143.6391  158.3595 C.3     1  UNL1        0.1124
     22 C         139.2162  141.4071  157.0862 C.3     1  UNL1        0.1387
     23 C         138.9759  139.9266  157.1031 C.3     1  UNL1        0.2269
     24 O         138.8787  139.1975  158.4103 O.3     1  UNL1       -0.4692
     25 N         141.9375  142.3831  166.3687 N.pl3   1  UNL1       -0.3328
     26 H         142.9134  142.2710  166.4340 H       1  UNL1        0.1468
     27 C         139.5994  145.8818  162.0918 C.3     1  UNL1        0.0896
     28 N         140.1839  145.0071  163.1610 N.3     1  UNL1       -0.2714
     29 C         141.5602  144.4348  162.9926 C.3     1  UNL1        0.0738
     30 C         142.1447  143.5602  164.0618 C.3     1  UNL1        0.0368
     31 C         141.3530  143.2578  165.2995 C.3     1  UNL1        0.0718
     32 C         139.9767  143.8301  165.4679 C.3     1  UNL1        0.0368
     33 C         139.3921  144.7048  164.3986 C.3     1  UNL1        0.0738
@<TRIPOS>BOND
     1    27    28    1
     2    28    29    1
     3    29    30    1
     4    30    31    1
     5    31    25    1
     6    25     1    1
     7     1     2   ar
     8     2     3   ar
     9     3     4   ar
    10     4     5   ar
    11     5     6   ar
    12     6     7   ar
    13     7     8   ar
    14     8    11    1
    15    11    12   ar
    16    12    13   ar
    17    13    14   ar
    18    14    15   ar
    19    15    16   ar
    20    16    17   ar
    21    17    18   ar
    22    18    19   ar
    23    16    20    1
    24    20    21    1
    25    20    22    1
    26    22    23    1
    27    23    24    1
    28     8     9   ar
    29     9    10   ar
    30    31    32    1
    31    32    33    1
    32    33    28    1
    33    10     1   ar
    34    10     5   ar
    35    19    11   ar
    36    19    14   ar
    37    24    15    1
    38    25    26    1
@<TRIPOS>MOLECULE
*****
 33 38 0 0 0
SMALL
GASTEIGER

@<TRIPOS>ATOM
      1 C         140.7968  142.0389  166.3072 C.ar    1  UNL1        0.0625
      2 C         141.4462  141.4213  167.5100 C.ar    1  UNL1        0.0158
      3 C         142.9037  141.6538  167.7777 C.ar    1  UNL1        0.0014
      4 C         143.7118  142.5039  166.8426 C.ar    1  UNL1        0.0016
      5 C         143.0623  143.1215  165.6398 C.ar    1  UNL1        0.0189
      6 C         143.8703  143.9716  164.7047 C.ar    1  UNL1        0.0032
      7 C         143.2209  144.5892  163.5019 C.ar    1  UNL1        0.0223
      8 C         141.7634  144.3568  163.2342 C.ar    1  UNL1        0.1188
      9 N         140.9554  143.5067  164.1692 N.ar    1  UNL1       -0.2410
     10 C         141.6048  142.8890  165.3721 C.ar    1  UNL1        0.0944
     11 C         141.1140  144.9744  162.0313 C.ar    1  UNL1        0.2041
     12 N         139.9563  145.9282  162.0466 N.ar    1  UNL1       -0.1253
     13 N         139.6350  146.2899  160.6268 N.ar    1  UNL1       -0.1237
     14 C         140.5941  145.5597  159.7341 C.ar    1  UNL1        0.2218
     15 C         140.7532  145.5301  158.2428 C.ar    1  UNL1        0.1907
     16 C         141.8263  144.6875  157.6196 C.ar    1  UNL1        0.1067
     17 C         142.7404  143.8745  158.4877 C.ar    1  UNL1        0.1382
     18 N         142.5813  143.9041  159.9789 N.ar    1  UNL1       -0.1592
     19 N         141.5081  144.7467  160.6021 N.ar    1  UNL1       -0.1869
     20 N         141.9855  144.6579  156.1284 N.pl3   1  UNL1       -0.2987
     21 C         143.0586  143.8153  155.5052 C.3     1  UNL1        0.1124
     22 C         141.0714  145.4709  155.2603 C.3     1  UNL1        0.1387
     23 C         139.9983  146.3135  155.8835 C.3     1  UNL1        0.2269
     24 O         139.8392  146.3432  157.3747 O.3     1  UNL1       -0.4692
     25 N         139.3392  141.8064  166.0394 N.pl3   1  UNL1       -0.3328
     26 H         138.6595  142.2493  166.5971 H       1  UNL1        0.1468
     27 C         137.6521  138.1776  161.5690 C.3     1  UNL1        0.0896
     28 N         138.0739  139.0848  162.6866 N.3     1  UNL1       -0.2714
     29 C         137.6736  140.5303  162.6709 C.3     1  UNL1        0.0738
     30 C         138.0954  141.4375  163.7885 C.3     1  UNL1        0.0368
     31 C         138.9175  140.8992  164.9218 C.3     1  UNL1        0.0718
     32 C         139.3178  139.4536  164.9375 C.3     1  UNL1        0.0368
     33 C         138.8960  138.5464  163.8199 C.3     1  UNL1        0.0738
@<TRIPOS>BOND
     1    27    28    1
     2    28    29    1
     3    29    30    1
     4    30    31    1
     5    31    25    1
     6    25     1    1
     7     1     2   ar
     8     2     3   ar
     9     3     4   ar
    10     4     5   ar
    11     5     6   ar
    12     6     7   ar
    13     7     8   ar
    14     8    11    1
    15    11    12   ar
    16    12    13   ar
    17    13    14   ar
    18    14    15   ar
    19    15    16   ar
    20    16    17   ar
    21    17    18   ar
    22    18    19   ar
    23    16    20    1
    24    20    21    1
    25    20    22    1
    26    22    23    1
    27    23    24    1
    28     8     9   ar
    29     9    10   ar
    30    31    32    1
    31    32    33    1
    32    33    28    1
    33    10     1   ar
    34    10     5   ar
    35    19    11   ar
    36    19    14   ar
    37    24    15    1
    38    25    26    1
@<TRIPOS>MOLECULE
*****
 33 38 0 0 0
SMALL
GASTEIGER

@<TRIPOS>ATOM
      1 C         141.1507  141.8189  166.9437 C.ar    1  UNL1        0.0625
      2 C         141.1491  142.2105  168.3917 C.ar    1  UNL1        0.0158
      3 C         140.2520  141.4984  169.3603 C.ar    1  UNL1        0.0014
      4 C         139.3565  140.3947  168.8809 C.ar    1  UNL1        0.0016
      5 C         139.3580  140.0031  167.4329 C.ar    1  UNL1        0.0189
      6 C         138.4625  138.8994  166.9535 C.ar    1  UNL1        0.0032
      7 C         138.4640  138.5077  165.5056 C.ar    1  UNL1        0.0223
      8 C         139.3611  139.2198  164.5370 C.ar    1  UNL1        0.1188
      9 N         140.2566  140.3235  165.0163 N.ar    1  UNL1       -0.2410
     10 C         140.2551  140.7152  166.4643 C.ar    1  UNL1        0.0944
     11 C         139.3626  138.8282  163.0890 C.ar    1  UNL1        0.2041
     12 N         138.3462  137.9591  162.4095 N.ar    1  UNL1       -0.1253
     13 N         138.7363  137.8307  160.9668 N.ar    1  UNL1       -0.1237
     14 C         139.9938  138.6204  160.7547 C.ar    1  UNL1        0.2218
     15 C         140.8364  138.8578  159.5366 C.ar    1  UNL1        0.1907
     16 C         142.0661  139.7116  159.6300 C.ar    1  UNL1        0.1067
     17 C         142.4532  140.3281  160.9416 C.ar    1  UNL1        0.1382
     18 N         141.6106  140.0907  162.1597 N.ar    1  UNL1       -0.1592
     19 N         140.3809  139.2369  162.0662 N.ar    1  UNL1       -0.1869
     20 N         142.9087  139.9490  158.4120 N.pl3   1  UNL1       -0.2987
     21 C         144.1384  140.8028  158.5055 C.3     1  UNL1        0.1124
     22 C         142.5216  139.3325  157.1005 C.3     1  UNL1        0.1387
     23 C         141.2919  138.4787  157.0071 C.3     1  UNL1        0.2269
     24 O         140.4493  138.2413  158.2251 O.3     1  UNL1       -0.4692
     25 N         142.0477  142.5309  165.9751 N.pl3   1  UNL1       -0.3328
     26 H         143.0220  142.3955  166.0155 H       1  UNL1        0.1468
     27 C         139.6979  146.2048  161.8543 C.3     1  UNL1        0.0896
     28 N         140.2854  145.2863  162.8845 N.3     1  UNL1       -0.2714
     29 C         139.4641  144.8606  164.0653 C.3     1  UNL1        0.0738
     30 C         140.0516  143.9422  165.0955 C.3     1  UNL1        0.0368
     31 C         141.4603  143.4494  164.9449 C.3     1  UNL1        0.0718
     32 C         142.2816  143.8751  163.7640 C.3     1  UNL1        0.0368
     33 C         141.6942  144.7936  162.7338 C.3     1  UNL1        0.0738
@<TRIPOS>BOND
     1    27    28    1
     2    28    29    1
     3    29    30    1
     4    30    31    1
     5    31    25    1
     6    25     1    1
     7     1     2   ar
     8     2     3   ar
     9     3     4   ar
    10     4     5   ar
    11     5     6   ar
    12     6     7   ar
    13     7     8   ar
    14     8    11    1
    15    11    12   ar
    16    12    13   ar
    17    13    14   ar
    18    14    15   ar
    19    15    16   ar
    20    16    17   ar
    21    17    18   ar
    22    18    19   ar
    23    16    20    1
    24    20    21    1
    25    20    22    1
    26    22    23    1
    27    23    24    1
    28     8     9   ar
    29     9    10   ar
    30    31    32    1
    31    32    33    1
    32    33    28    1
    33    10     1   ar
    34    10     5   ar
    35    19    11   ar
    36    19    14   ar
    37    24    15    1
    38    25    26    1
@<TRIPOS>MOLECULE
*****
 33 38 0 0 0
SMALL
GASTEIGER

@<TRIPOS>ATOM
      1 C         142.6883  142.3923  165.9513 C.ar    1  UNL1        0.0625
      2 C         142.7369  141.8130  167.3340 C.ar    1  UNL1        0.0158
      3 C         141.5726  141.9907  168.2630 C.ar    1  UNL1        0.0014
      4 C         140.3597  142.7476  167.8091 C.ar    1  UNL1        0.0016
      5 C         140.3111  143.3268  166.4263 C.ar    1  UNL1        0.0189
      6 C         139.0982  144.0837  165.9724 C.ar    1  UNL1        0.0032
      7 C         139.0495  144.6630  164.5897 C.ar    1  UNL1        0.0223
      8 C         140.2138  144.4853  163.6608 C.ar    1  UNL1        0.1188
      9 N         141.4267  143.7285  164.1146 N.ar    1  UNL1       -0.2410
     10 C         141.4754  143.1492  165.4974 C.ar    1  UNL1        0.0944
     11 C         140.1652  145.0646  162.2779 C.ar    1  UNL1        0.2041
     12 N         139.3441  146.2425  161.8438 N.ar    1  UNL1       -0.1253
     13 N         139.6006  146.4735  160.3840 N.ar    1  UNL1       -0.1237
     14 C         140.5802  145.4385  159.9161 C.ar    1  UNL1        0.2218
     15 C         141.1996  145.1764  158.5753 C.ar    1  UNL1        0.1907
     16 C         142.1680  144.0435  158.4050 C.ar    1  UNL1        0.1067
     17 C         142.5169  143.1728  159.5755 C.ar    1  UNL1        0.1382
     18 N         141.8975  143.4349  160.9163 N.ar    1  UNL1       -0.1592
     19 N         140.9292  144.5677  161.0865 N.ar    1  UNL1       -0.1869
     20 N         142.7873  143.7814  157.0643 N.pl3   1  UNL1       -0.2987
     21 C         143.7557  142.6486  156.8940 C.3     1  UNL1        0.1124
     22 C         142.4384  144.6522  155.8938 C.3     1  UNL1        0.1387
     23 C         141.4701  145.7850  156.0641 C.3     1  UNL1        0.2269
     24 O         140.8507  146.0471  157.4048 O.3     1  UNL1       -0.4692
     25 N         143.8525  142.2147  165.0223 N.pl3   1  UNL1       -0.3328
     26 H         144.6222  142.8263  165.0750 H       1  UNL1        0.1468
     27 C         143.8188  137.7765  160.9848 C.3     1  UNL1        0.0896
     28 N         143.8272  138.8860  161.9942 N.3     1  UNL1       -0.2714
     29 C         144.3092  140.2517  161.6035 C.3     1  UNL1        0.0738
     30 C         144.3176  141.3612  162.6128 C.3     1  UNL1        0.0368
     31 C         143.8441  141.1051  164.0129 C.3     1  UNL1        0.0718
     32 C         143.3621  139.7394  164.4036 C.3     1  UNL1        0.0368
     33 C         143.3536  138.6298  163.3943 C.3     1  UNL1        0.0738
@<TRIPOS>BOND
     1    27    28    1
     2    28    29    1
     3    29    30    1
     4    30    31    1
     5    31    25    1
     6    25     1    1
     7     1     2   ar
     8     2     3   ar
     9     3     4   ar
    10     4     5   ar
    11     5     6   ar
    12     6     7   ar
    13     7     8   ar
    14     8    11    1
    15    11    12   ar
    16    12    13   ar
    17    13    14   ar
    18    14    15   ar
    19    15    16   ar
    20    16    17   ar
    21    17    18   ar
    22    18    19   ar
    23    16    20    1
    24    20    21    1
    25    20    22    1
    26    22    23    1
    27    23    24    1
    28     8     9   ar
    29     9    10   ar
    30    31    32    1
    31    32    33    1
    32    33    28    1
    33    10     1   ar
    34    10     5   ar
    35    19    11   ar
    36    19    14   ar
    37    24    15    1
    38    25    26    1
@<TRIPOS>MOLECULE
*****
 33 38 0 0 0
SMALL
GASTEIGER

@<TRIPOS>ATOM
      1 C         142.0293  138.4557  160.8612 C.ar    1  UNL1        0.0625
      2 C         142.1702  138.3428  159.3721 C.ar    1  UNL1        0.0158
      3 C         140.9524  138.3912  158.4977 C.ar    1  UNL1        0.0014
      4 C         139.5937  138.5525  159.1124 C.ar    1  UNL1        0.0016
      5 C         139.4527  138.6653  160.6015 C.ar    1  UNL1        0.0189
      6 C         138.0940  138.8265  161.2161 C.ar    1  UNL1        0.0032
      7 C         137.9530  138.9393  162.7052 C.ar    1  UNL1        0.0223
      8 C         139.1708  138.8909  163.5796 C.ar    1  UNL1        0.1188
      9 N         140.5295  138.7297  162.9650 N.ar    1  UNL1       -0.2410
     10 C         140.6706  138.6169  161.4759 C.ar    1  UNL1        0.0944
     11 C         139.0298  139.0037  165.0688 C.ar    1  UNL1        0.2041
     12 N         137.9086  138.4441  165.8932 N.ar    1  UNL1       -0.1253
     13 N         138.1712  138.7905  167.3288 N.ar    1  UNL1       -0.1237
     14 C         139.4547  139.5642  167.3916 C.ar    1  UNL1        0.2218
     15 C         140.2088  140.1658  168.5404 C.ar    1  UNL1        0.1907
     16 C         141.4936  140.8991  168.2922 C.ar    1  UNL1        0.1067
     17 C         142.0243  141.0309  166.8954 C.ar    1  UNL1        0.1382
     18 N         141.2702  140.4293  165.7468 N.ar    1  UNL1       -0.1592
     19 N         139.9854  139.6960  165.9949 N.ar    1  UNL1       -0.1869
     20 N         142.2477  141.5007  169.4409 N.pl3   1  UNL1       -0.2987
     21 C         143.5325  142.2340  169.1928 C.3     1  UNL1        0.1124
     22 C         141.7170  141.3689  170.8376 C.3     1  UNL1        0.1387
     23 C         140.4323  140.6355  171.0858 C.3     1  UNL1        0.2269
     24 O         139.6781  140.0340  169.9371 O.3     1  UNL1       -0.4692
     25 N         143.2471  138.4073  161.7357 N.pl3   1  UNL1       -0.3328
     26 H         143.7894  137.5868  161.7795 H       1  UNL1        0.1468
     27 C         144.8128  143.2144  164.9667 C.3     1  UNL1        0.0896
     28 N         144.4214  142.0126  164.1590 N.3     1  UNL1       -0.2714
     29 C         143.5040  142.1663  162.9823 C.3     1  UNL1        0.0738
     30 C         143.1125  140.9645  162.1745 C.3     1  UNL1        0.0368
     31 C         143.6385  139.6090  162.5435 C.3     1  UNL1        0.0718
     32 C         144.5560  139.4554  163.7203 C.3     1  UNL1        0.0368
     33 C         144.9475  140.6572  164.5280 C.3     1  UNL1        0.0738
@<TRIPOS>BOND
     1    27    28    1
     2    28    29    1
     3    29    30    1
     4    30    31    1
     5    31    25    1
     6    25     1    1
     7     1     2   ar
     8     2     3   ar
     9     3     4   ar
    10     4     5   ar
    11     5     6   ar
    12     6     7   ar
    13     7     8   ar
    14     8    11    1
    15    11    12   ar
    16    12    13   ar
    17    13    14   ar
    18    14    15   ar
    19    15    16   ar
    20    16    17   ar
    21    17    18   ar
    22    18    19   ar
    23    16    20    1
    24    20    21    1
    25    20    22    1
    26    22    23    1
    27    23    24    1
    28     8     9   ar
    29     9    10   ar
    30    31    32    1
    31    32    33    1
    32    33    28    1
    33    10     1   ar
    34    10     5   ar
    35    19    11   ar
    36    19    14   ar
    37    24    15    1
    38    25    26    1
@<TRIPOS>MOLECULE
*****
 33 38 0 0 0
SMALL
GASTEIGER

@<TRIPOS>ATOM
      1 C         139.8798  140.4354  166.3023 C.ar    1  UNL1        0.0625
      2 C         139.4963  140.5355  167.7490 C.ar    1  UNL1        0.0158
      3 C         140.4611  140.1014  168.8124 C.ar    1  UNL1        0.0014
      4 C         141.8093  139.5672  168.4292 C.ar    1  UNL1        0.0016
      5 C         142.1927  139.4670  166.9825 C.ar    1  UNL1        0.0189
      6 C         143.5409  138.9327  166.5992 C.ar    1  UNL1        0.0032
      7 C         143.9245  138.8326  165.1526 C.ar    1  UNL1        0.0223
      8 C         142.9597  139.2667  164.0892 C.ar    1  UNL1        0.1188
      9 N         141.6116  139.8009  164.4723 N.ar    1  UNL1       -0.2410
     10 C         141.2280  139.9011  165.9191 C.ar    1  UNL1        0.0944
     11 C         143.3432  139.1665  162.6424 C.ar    1  UNL1        0.2041
     12 N         143.9368  137.9649  161.9687 N.ar    1  UNL1       -0.1253
     13 N         144.1609  138.3062  160.5254 N.ar    1  UNL1       -0.1237
     14 C         143.7058  139.7186  160.3070 C.ar    1  UNL1        0.2218
     15 C         143.6863  140.5894  159.0857 C.ar    1  UNL1        0.1907
     16 C         143.1614  141.9918  159.1729 C.ar    1  UNL1        0.1067
     17 C         142.6560  142.5236  160.4813 C.ar    1  UNL1        0.1382
     18 N         142.6756  141.6528  161.7025 N.ar    1  UNL1       -0.1592
     19 N         143.2004  140.2504  161.6154 N.ar    1  UNL1       -0.1869
     20 N         143.1418  142.8626  157.9516 N.pl3   1  UNL1       -0.2987
     21 C         142.6170  144.2650  158.0388 C.3     1  UNL1        0.1124
     22 C         143.6472  142.3308  156.6433 C.3     1  UNL1        0.1387
     23 C         144.1720  140.9284  156.5561 C.3     1  UNL1        0.2269
     24 O         144.1916  140.0576  157.7773 O.3     1  UNL1       -0.4692
     25 N         138.9151  140.8695  165.2388 N.pl3   1  UNL1       -0.3328
     26 H         138.1178  140.3252  165.0456 H       1  UNL1        0.1468
     27 C         139.9159  145.9226  162.1626 C.3     1  UNL1        0.0896
     28 N         139.6657  144.6594  162.9317 N.3     1  UNL1       -0.2714
     29 C         139.3112  143.3963  162.2044 C.3     1  UNL1        0.0738
     30 C         139.0610  142.1330  162.9734 C.3     1  UNL1        0.0368
     31 C         139.1653  142.1328  164.4698 C.3     1  UNL1        0.0718
     32 C         139.5198  143.3959  165.1971 C.3     1  UNL1        0.0368
     33 C         139.7700  144.6592  164.4281 C.3     1  UNL1        0.0738
@<TRIPOS>BOND
     1    27    28    1
     2    28    29    1
     3    29    30    1
     4    30    31    1
     5    31    25    1
     6    25     1    1
     7     1     2   ar
     8     2     3   ar
     9     3     4   ar
    10     4     5   ar
    11     5     6   ar
    12     6     7   ar
    13     7     8   ar
    14     8    11    1
    15    11    12   ar
    16    12    13   ar
    17    13    14   ar
    18    14    15   ar
    19    15    16   ar
    20    16    17   ar
    21    17    18   ar
    22    18    19   ar
    23    16    20    1
    24    20    21    1
    25    20    22    1
    26    22    23    1
    27    23    24    1
    28     8     9   ar
    29     9    10   ar
    30    31    32    1
    31    32    33    1
    32    33    28    1
    33    10     1   ar
    34    10     5   ar
    35    19    11   ar
    36    19    14   ar
    37    24    15    1
    38    25    26    1
@<TRIPOS>MOLECULE
*****
 33 38 0 0 0
SMALL
GASTEIGER

@<TRIPOS>ATOM
      1 C         142.3747  139.5013  167.1298 C.ar    1  UNL1        0.0625
      2 C         142.6404  139.7260  168.5889 C.ar    1  UNL1        0.0158
      3 C         141.4978  139.9634  169.5314 C.ar    1  UNL1        0.0014
      4 C         140.0896  139.9761  169.0148 C.ar    1  UNL1        0.0016
      5 C         139.8240  139.7514  167.5557 C.ar    1  UNL1        0.0189
      6 C         138.4159  139.7641  167.0391 C.ar    1  UNL1        0.0032
      7 C         138.1501  139.5394  165.5800 C.ar    1  UNL1        0.0223
      8 C         139.2927  139.3020  164.6376 C.ar    1  UNL1        0.1188
      9 N         140.7008  139.2893  165.1541 N.ar    1  UNL1       -0.2410
     10 C         140.9666  139.5140  166.6132 C.ar    1  UNL1        0.0944
     11 C         139.0270  139.0773  163.1784 C.ar    1  UNL1        0.2041
     12 N         138.5698  137.7928  162.5531 N.ar    1  UNL1       -0.1253
     13 N         138.4322  138.0193  161.0766 N.ar    1  UNL1       -0.1237
     14 C         138.8043  139.4437  160.7896 C.ar    1  UNL1        0.2218
     15 C         138.8559  140.2299  159.5131 C.ar    1  UNL1        0.1907
     16 C         139.2751  141.6700  159.5356 C.ar    1  UNL1        0.1067
     17 C         139.6427  142.3238  160.8346 C.ar    1  UNL1        0.1382
     18 N         139.5911  141.5377  162.1110 N.ar    1  UNL1       -0.1592
     19 N         139.1719  140.0976  162.0885 N.ar    1  UNL1       -0.1869
     20 N         139.3267  142.4561  158.2592 N.pl3   1  UNL1       -0.2987
     21 C         139.7459  143.8962  158.2818 C.3     1  UNL1        0.1124
     22 C         138.9591  141.8023  156.9603 C.3     1  UNL1        0.1387
     23 C         138.5398  140.3622  156.9378 C.3     1  UNL1        0.2269
     24 O         138.4882  139.5760  158.2142 O.3     1  UNL1       -0.4692
     25 N         143.5172  139.2639  166.1872 N.pl3   1  UNL1       -0.3328
     26 H         144.0736  138.4572  166.2814 H       1  UNL1        0.1468
     27 C         144.6960  143.2310  161.8430 C.3     1  UNL1        0.0896
     28 N         144.4013  142.2392  162.9291 N.3     1  UNL1       -0.2714
     29 C         144.6810  140.7819  162.7100 C.3     1  UNL1        0.0738
     30 C         144.3863  139.7902  163.7960 C.3     1  UNL1        0.0368
     31 C         143.8119  140.2557  165.1012 C.3     1  UNL1        0.0718
     32 C         143.5322  141.7131  165.3203 C.3     1  UNL1        0.0368
     33 C         143.8269  142.7049  164.2342 C.3     1  UNL1        0.0738
@<TRIPOS>BOND
     1    27    28    1
     2    28    29    1
     3    29    30    1
     4    30    31    1
     5    31    25    1
     6    25     1    1
     7     1     2   ar
     8     2     3   ar
     9     3     4   ar
    10     4     5   ar
    11     5     6   ar
    12     6     7   ar
    13     7     8   ar
    14     8    11    1
    15    11    12   ar
    16    12    13   ar
    17    13    14   ar
    18    14    15   ar
    19    15    16   ar
    20    16    17   ar
    21    17    18   ar
    22    18    19   ar
    23    16    20    1
    24    20    21    1
    25    20    22    1
    26    22    23    1
    27    23    24    1
    28     8     9   ar
    29     9    10   ar
    30    31    32    1
    31    32    33    1
    32    33    28    1
    33    10     1   ar
    34    10     5   ar
    35    19    11   ar
    36    19    14   ar
    37    24    15    1
    38    25    26    1
@<TRIPOS>MOLECULE
*****
 33 38 0 0 0
SMALL
GASTEIGER

@<TRIPOS>ATOM
      1 C         138.6380  139.2308  164.7780 C.ar    1  UNL1        0.0625
      2 C         138.0913  138.3996  165.9005 C.ar    1  UNL1        0.0158
      3 C         138.3510  138.7970  167.3234 C.ar    1  UNL1        0.0014
      4 C         139.1573  140.0256  167.6238 C.ar    1  UNL1        0.0016
      5 C         139.7041  140.8568  166.5012 C.ar    1  UNL1        0.0189
      6 C         140.5105  142.0854  166.8016 C.ar    1  UNL1        0.0032
      7 C         141.0572  142.9167  165.6791 C.ar    1  UNL1        0.0223
      8 C         140.7976  142.5193  164.2562 C.ar    1  UNL1        0.1188
      9 N         139.9912  141.2907  163.9558 N.ar    1  UNL1       -0.2410
     10 C         139.4444  140.4594  165.0783 C.ar    1  UNL1        0.0944
     11 C         141.3444  143.3505  163.1336 C.ar    1  UNL1        0.2041
     12 N         142.5404  144.2529  163.2061 N.ar    1  UNL1       -0.1253
     13 N         142.7263  144.8854  161.8588 N.ar    1  UNL1       -0.1237
     14 C         141.6451  144.3739  160.9535 C.ar    1  UNL1        0.2218
     15 C         141.3280  144.6495  159.5135 C.ar    1  UNL1        0.1907
     16 C         140.1568  143.9764  158.8614 C.ar    1  UNL1        0.1067
     17 C         139.3027  143.0278  159.6493 C.ar    1  UNL1        0.1382
     18 N         139.6198  142.7523  161.0893 N.ar    1  UNL1       -0.1592
     19 N         140.7910  143.4254  161.7414 N.ar    1  UNL1       -0.1869
     20 N         139.8396  144.2519  157.4215 N.pl3   1  UNL1       -0.2987
     21 C         138.6684  143.5788  156.7694 C.3     1  UNL1        0.1124
     22 C         140.6937  145.2004  156.6336 C.3     1  UNL1        0.1387
     23 C         141.8649  145.8735  157.2857 C.3     1  UNL1        0.2269
     24 O         142.1821  145.5980  158.7257 O.3     1  UNL1       -0.4692
     25 N         138.3784  138.8334  163.3550 N.pl3   1  UNL1       -0.3328
     26 H         137.4536  138.7495  163.0282 H       1  UNL1        0.1468
     27 C         142.9770  137.7559  159.6548 C.3     1  UNL1        0.0896
     28 N         141.8274  138.0253  160.5798 N.3     1  UNL1       -0.2714
     29 C         141.9150  137.6225  162.0221 C.3     1  UNL1        0.0738
     30 C         140.7653  137.8919  162.9471 C.3     1  UNL1        0.0368
     31 C         139.5281  138.5640  162.4299 C.3     1  UNL1        0.0718
     32 C         139.4405  138.9668  160.9876 C.3     1  UNL1        0.0368
     33 C         140.5901  138.6974  160.0625 C.3     1  UNL1        0.0738
@<TRIPOS>BOND
     1    27    28    1
     2    28    29    1
     3    29    30    1
     4    30    31    1
     5    31    25    1
     6    25     1    1
     7     1     2   ar
     8     2     3   ar
     9     3     4   ar
    10     4     5   ar
    11     5     6   ar
    12     6     7   ar
    13     7     8   ar
    14     8    11    1
    15    11    12   ar
    16    12    13   ar
    17    13    14   ar
    18    14    15   ar
    19    15    16   ar
    20    16    17   ar
    21    17    18   ar
    22    18    19   ar
    23    16    20    1
    24    20    21    1
    25    20    22    1
    26    22    23    1
    27    23    24    1
    28     8     9   ar
    29     9    10   ar
    30    31    32    1
    31    32    33    1
    32    33    28    1
    33    10     1   ar
    34    10     5   ar
    35    19    11   ar
    36    19    14   ar
    37    24    15    1
    38    25    26    1
