@<TRIPOS>MOLECULE
*****
 40 46 0 0 0
SMALL
GASTEIGER

@<TRIPOS>ATOM
      1 C         141.7339  143.2346  160.1957 C.ar    1  UNL1        0.0146
      2 C         140.9342  142.0768  160.7151 C.ar    1  UNL1       -0.0011
      3 C         139.6837  141.6503  160.0050 C.ar    1  UNL1        0.0014
      4 C         139.2329  142.3817  158.7754 C.ar    1  UNL1        0.0206
      5 C         140.0326  143.5395  158.2560 C.ar    1  UNL1        0.0989
      6 C         141.2831  143.9660  158.9661 C.ar    1  UNL1        0.1511
      7 O         142.0829  145.1239  158.4467 O.3     1  UNL1       -0.4678
      8 C         141.6321  145.8552  157.2171 C.3     1  UNL1        0.2510
      9 C         140.3815  145.4287  156.5070 C.ar    1  UNL1        0.1087
     10 C         139.6945  145.9540  155.2814 C.ar    1  UNL1        0.1518
     11 N         138.4701  145.1207  155.0434 N.ar    1  UNL1       -0.2192
     12 C         138.4005  144.0805  156.1218 C.ar    1  UNL1        0.1828
     13 N         139.5818  144.2709  157.0264 N.ar    1  UNL1       -0.2851
     14 C         140.1515  147.1096  154.4413 C.2     1  UNL1        0.2682
     15 O         141.0794  146.8763  153.2861 O.2     1  UNL1       -0.2682
     16 N         139.6806  148.4984  154.7565 N.am    1  UNL1       -0.2697
     17 C         138.7527  148.7317  155.9117 C.3     1  UNL1        0.1258
     18 C         138.2818  150.1206  156.2268 C.3     1  UNL1        0.1637
     19 O         138.7389  151.2762  155.3868 O.3     1  UNL1       -0.3501
     20 C         139.6668  151.0429  154.2316 C.3     1  UNL1        0.1637
     21 C         140.1377  149.6540  153.9164 C.3     1  UNL1        0.1258
     22 C         142.9845  143.6611  160.9058 C.3     1  UNL1        0.0468
     23 C         142.8943  144.5129  162.1372 C.3     1  UNL1        0.0770
     24 N         141.2455  142.7864  165.9517 N.pl3   1  UNL1       -0.3046
     25 C         142.6169  142.3984  165.4841 C.3     1  UNL1        0.1081
     26 C         143.1666  142.9739  164.2126 C.3     1  UNL1        0.0938
     27 N         142.3447  143.9374  163.4087 N.3     1  UNL1       -0.2695
     28 C         140.9733  144.3254  163.8763 C.3     1  UNL1        0.0938
     29 C         140.4237  143.7499  165.1478 C.3     1  UNL1        0.1081
     30 C         137.1383  137.3829  167.0393 C.3     1  UNL1        0.0521
     31 C         138.0277  138.5899  167.0853 C.ar    1  UNL1        0.0593
     32 C         138.5773  139.1654  165.8138 C.ar    1  UNL1        0.0148
     33 C         139.4667  140.3724  165.8598 C.ar    1  UNL1        0.0039
     34 C         139.8065  141.0039  167.1772 C.ar    1  UNL1        0.0310
     35 C         140.6959  142.2109  167.2232 C.ar    1  UNL1        0.0493
     36 C         141.0358  142.8424  168.5407 C.ar    1  UNL1        0.0146
     37 C         140.4862  142.2668  169.8122 C.ar    1  UNL1        0.0028
     38 C         139.5968  141.0598  169.7662 C.ar    1  UNL1        0.0192
     39 C         139.2569  140.4284  168.4488 C.ar    1  UNL1        0.0821
     40 N         138.3675  139.2214  168.4028 N.ar    1  UNL1       -0.2496
@<TRIPOS>BOND
     1    30    31    1
     2    31    32   ar
     3    32    33   ar
     4    33    34   ar
     5    34    35   ar
     6    35    24    1
     7    24    25    1
     8    25    26    1
     9    26    27    1
    10    27    23    1
    11    23    22    1
    12    22     1    1
    13     1     2   ar
    14     2     3   ar
    15     3     4   ar
    16     4     5   ar
    17     5     6   ar
    18     6     7    1
    19     7     8    1
    20     8     9    1
    21     9    10   ar
    22    10    14    1
    23    14    15    2
    24    14    16   am
    25    16    17    1
    26    17    18    1
    27    18    19    1
    28    19    20    1
    29    20    21    1
    30    10    11   ar
    31    11    12   ar
    32    12    13   ar
    33    27    28    1
    34    28    29    1
    35    35    36   ar
    36    36    37   ar
    37    37    38   ar
    38    38    39   ar
    39    39    40   ar
    40    40    31   ar
    41    39    34   ar
    42    29    24    1
    43     6     1   ar
    44    13     9   ar
    45    13     5    1
    46    21    16    1
@<TRIPOS>MOLECULE
*****
 40 46 0 0 0
SMALL
GASTEIGER

@<TRIPOS>ATOM
      1 C         140.1641  139.3996  164.7533 C.ar    1  UNL1        0.0146
      2 C         141.0501  139.0574  165.9142 C.ar    1  UNL1       -0.0011
      3 C         142.1038  140.0254  166.3643 C.ar    1  UNL1        0.0014
      4 C         142.2714  141.3357  165.6535 C.ar    1  UNL1        0.0206
      5 C         141.3853  141.6778  164.4926 C.ar    1  UNL1        0.0989
      6 C         140.3317  140.7098  164.0425 C.ar    1  UNL1        0.1511
      7 O         139.4455  141.0519  162.8815 O.3     1  UNL1       -0.4678
      8 C         139.6131  142.3621  162.1707 C.3     1  UNL1        0.2510
      9 C         140.6668  143.3302  162.6209 C.ar    1  UNL1        0.1087
     10 C         141.0636  144.6869  162.1190 C.ar    1  UNL1        0.1518
     11 N         142.1949  145.1833  162.9697 N.ar    1  UNL1       -0.2192
     12 C         142.4973  144.1333  163.9974 C.ar    1  UNL1        0.1828
     13 N         141.5529  142.9881  163.7818 N.ar    1  UNL1       -0.2851
     14 C         140.4387  145.4188  160.9683 C.2     1  UNL1        0.2682
     15 O         139.3320  146.4005  161.2160 O.2     1  UNL1       -0.2682
     16 N         140.9207  145.1689  159.5700 N.am    1  UNL1       -0.2697
     17 C         142.0275  144.1872  159.3223 C.3     1  UNL1        0.1258
     18 C         142.5094  143.9374  157.9239 C.3     1  UNL1        0.1637
     19 O         141.8846  144.6692  156.7733 O.3     1  UNL1       -0.3501
     20 C         140.7778  145.6509  157.0210 C.3     1  UNL1        0.1637
     21 C         140.2959  145.9007  158.4194 C.3     1  UNL1        0.1258
     22 C         139.1104  138.4315  164.3031 C.3     1  UNL1        0.0468
     23 C         139.4291  137.4122  163.2498 C.3     1  UNL1        0.0770
     24 N         141.8178  138.5949  159.6241 N.pl3   1  UNL1       -0.3046
     25 C         142.5115  138.0267  160.8266 C.3     1  UNL1        0.1081
     26 C         141.7152  137.6325  162.0352 C.3     1  UNL1        0.0938
     27 N         140.2254  137.8064  162.0412 N.3     1  UNL1       -0.2695
     28 C         139.5317  138.3746  160.8387 C.3     1  UNL1        0.0938
     29 C         140.3280  138.7688  159.6301 C.3     1  UNL1        0.1081
     30 C         142.1070  135.8429  153.3318 C.3     1  UNL1        0.0521
     31 C         142.2338  136.6295  154.6027 C.ar    1  UNL1        0.0593
     32 C         141.4376  136.2353  155.8113 C.ar    1  UNL1        0.0148
     33 C         141.5643  137.0218  157.0822 C.ar    1  UNL1        0.0039
     34 C         142.4873  138.2025  157.1446 C.ar    1  UNL1        0.0310
     35 C         142.6140  138.9891  158.4156 C.ar    1  UNL1        0.0493
     36 C         143.5371  140.1698  158.4780 C.ar    1  UNL1        0.0146
     37 C         144.3333  140.5640  157.2694 C.ar    1  UNL1        0.0028
     38 C         144.2066  139.7775  155.9985 C.ar    1  UNL1        0.0192
     39 C         143.2836  138.5968  155.9361 C.ar    1  UNL1        0.0821
     40 N         143.1568  137.8103  154.6651 N.ar    1  UNL1       -0.2496
@<TRIPOS>BOND
     1    30    31    1
     2    31    32   ar
     3    32    33   ar
     4    33    34   ar
     5    34    35   ar
     6    35    24    1
     7    24    25    1
     8    25    26    1
     9    26    27    1
    10    27    23    1
    11    23    22    1
    12    22     1    1
    13     1     2   ar
    14     2     3   ar
    15     3     4   ar
    16     4     5   ar
    17     5     6   ar
    18     6     7    1
    19     7     8    1
    20     8     9    1
    21     9    10   ar
    22    10    14    1
    23    14    15    2
    24    14    16   am
    25    16    17    1
    26    17    18    1
    27    18    19    1
    28    19    20    1
    29    20    21    1
    30    10    11   ar
    31    11    12   ar
    32    12    13   ar
    33    27    28    1
    34    28    29    1
    35    35    36   ar
    36    36    37   ar
    37    37    38   ar
    38    38    39   ar
    39    39    40   ar
    40    40    31   ar
    41    39    34   ar
    42    29    24    1
    43     6     1   ar
    44    13     9   ar
    45    13     5    1
    46    21    16    1
@<TRIPOS>MOLECULE
*****
 40 46 0 0 0
SMALL
GASTEIGER

@<TRIPOS>ATOM
      1 C         139.9166  140.0853  165.7135 C.ar    1  UNL1        0.0146
      2 C         140.9026  139.7797  166.8017 C.ar    1  UNL1       -0.0011
      3 C         142.0987  140.6629  166.9998 C.ar    1  UNL1        0.0014
      4 C         142.3088  141.8517  166.1095 C.ar    1  UNL1        0.0206
      5 C         141.3228  142.1574  165.0213 C.ar    1  UNL1        0.0989
      6 C         140.1267  141.2741  164.8232 C.ar    1  UNL1        0.1511
      7 O         139.1406  141.5797  163.7349 O.3     1  UNL1       -0.4678
      8 C         139.3507  142.7685  162.8447 C.3     1  UNL1        0.2510
      9 C         140.5469  143.6518  163.0427 C.ar    1  UNL1        0.1087
     10 C         141.0142  144.8840  162.3263 C.ar    1  UNL1        0.1518
     11 N         142.2891  145.3399  162.9719 N.ar    1  UNL1       -0.2192
     12 C         142.6097  144.3895  164.0872 C.ar    1  UNL1        0.1828
     13 N         141.5329  143.3462  164.1310 N.ar    1  UNL1       -0.2851
     14 C         140.3273  145.5443  161.1678 C.2     1  UNL1        0.2682
     15 O         139.1651  146.4614  161.4085 O.2     1  UNL1       -0.2682
     16 N         140.8028  145.2874  159.7685 N.am    1  UNL1       -0.2697
     17 C         141.9650  144.3702  159.5277 C.3     1  UNL1        0.1258
     18 C         142.4404  144.1134  158.1284 C.3     1  UNL1        0.1637
     19 O         141.7535  144.7737  156.9699 O.3     1  UNL1       -0.3501
     20 C         140.5912  145.6909  157.2107 C.3     1  UNL1        0.1637
     21 C         140.1159  145.9477  158.6100 C.3     1  UNL1        0.1258
     22 C         138.7205  139.2020  165.5154 C.3     1  UNL1        0.0468
     23 C         138.8148  138.0011  164.6216 C.3     1  UNL1        0.0770
     24 N         140.1487  138.4745  160.3500 N.pl3   1  UNL1       -0.3046
     25 C         141.0914  137.9120  161.3721 C.3     1  UNL1        0.1081
     26 C         140.6468  137.7542  162.7961 C.3     1  UNL1        0.0938
     27 N         139.2594  138.1589  163.1978 N.3     1  UNL1       -0.2695
     28 C         138.3167  138.7215  162.1756 C.3     1  UNL1        0.0938
     29 C         138.7613  138.8793  160.7518 C.3     1  UNL1        0.1081
     30 C         145.4535  141.9098  157.6467 C.3     1  UNL1        0.0521
     31 C         144.2385  141.0904  157.9666 C.ar    1  UNL1        0.0593
     32 C         143.7938  140.9326  159.3904 C.ar    1  UNL1        0.0148
     33 C         142.5788  140.1132  159.7103 C.ar    1  UNL1        0.0039
     34 C         141.8084  139.4517  158.6063 C.ar    1  UNL1        0.0310
     35 C         140.5933  138.6324  158.9262 C.ar    1  UNL1        0.0493
     36 C         139.8229  137.9708  157.8221 C.ar    1  UNL1        0.0146
     37 C         140.2675  138.1286  156.3983 C.ar    1  UNL1        0.0028
     38 C         141.4826  138.9480  156.0784 C.ar    1  UNL1        0.0192
     39 C         142.2530  139.6095  157.1824 C.ar    1  UNL1        0.0821
     40 N         143.4681  140.4288  156.8625 N.ar    1  UNL1       -0.2496
@<TRIPOS>BOND
     1    30    31    1
     2    31    32   ar
     3    32    33   ar
     4    33    34   ar
     5    34    35   ar
     6    35    24    1
     7    24    25    1
     8    25    26    1
     9    26    27    1
    10    27    23    1
    11    23    22    1
    12    22     1    1
    13     1     2   ar
    14     2     3   ar
    15     3     4   ar
    16     4     5   ar
    17     5     6   ar
    18     6     7    1
    19     7     8    1
    20     8     9    1
    21     9    10   ar
    22    10    14    1
    23    14    15    2
    24    14    16   am
    25    16    17    1
    26    17    18    1
    27    18    19    1
    28    19    20    1
    29    20    21    1
    30    10    11   ar
    31    11    12   ar
    32    12    13   ar
    33    27    28    1
    34    28    29    1
    35    35    36   ar
    36    36    37   ar
    37    37    38   ar
    38    38    39   ar
    39    39    40   ar
    40    40    31   ar
    41    39    34   ar
    42    29    24    1
    43     6     1   ar
    44    13     9   ar
    45    13     5    1
    46    21    16    1
@<TRIPOS>MOLECULE
*****
 40 46 0 0 0
SMALL
GASTEIGER

@<TRIPOS>ATOM
      1 C         140.0397  144.1344  157.0255 C.ar    1  UNL1        0.0146
      2 C         140.2885  144.1594  155.5465 C.ar    1  UNL1       -0.0011
      3 C         140.3382  142.8754  154.7726 C.ar    1  UNL1        0.0014
      4 C         140.1391  141.5665  155.4776 C.ar    1  UNL1        0.0206
      5 C         139.8903  141.5415  156.9566 C.ar    1  UNL1        0.0989
      6 C         139.8406  142.8254  157.7305 C.ar    1  UNL1        0.1511
      7 O         139.5918  142.8005  159.2096 O.3     1  UNL1       -0.4678
      8 C         139.3926  141.4916  159.9146 C.3     1  UNL1        0.2510
      9 C         139.4423  140.2076  159.1406 C.ar    1  UNL1        0.1087
     10 C         139.2834  138.7762  159.5598 C.ar    1  UNL1        0.1518
     11 N         139.4339  137.9165  158.3399 N.ar    1  UNL1       -0.2192
     12 C         139.6859  138.8166  157.1667 C.ar    1  UNL1        0.1828
     13 N         139.6911  140.2326  157.6616 N.ar    1  UNL1       -0.2851
     14 C         139.0201  138.2899  160.9541 C.2     1  UNL1        0.2682
     15 O         137.6126  138.0374  161.4072 O.2     1  UNL1       -0.2682
     16 N         140.1643  138.0560  161.8954 N.am    1  UNL1       -0.2697
     17 C         141.5718  138.3085  161.4425 C.3     1  UNL1        0.1258
     18 C         142.7160  138.0746  162.3838 C.3     1  UNL1        0.1637
     19 O         142.4527  137.5882  163.7781 O.3     1  UNL1       -0.3501
     20 C         141.0453  137.3358  164.2311 C.3     1  UNL1        0.1637
     21 C         139.9011  137.5697  163.2898 C.3     1  UNL1        0.1258
     22 C         139.9901  145.4183  157.7995 C.3     1  UNL1        0.0468
     23 C         141.1644  145.8372  158.6335 C.3     1  UNL1        0.0770
     24 N         141.9366  143.8444  162.5936 N.pl3   1  UNL1       -0.3046
     25 C         140.9337  144.9554  162.4961 C.3     1  UNL1        0.1081
     26 C         140.6762  145.6198  161.1760 C.3     1  UNL1        0.0938
     27 N         141.4218  145.1729  159.9535 N.3     1  UNL1       -0.2695
     28 C         142.4248  144.0618  160.0511 C.3     1  UNL1        0.0938
     29 C         142.6822  143.3976  161.3711 C.3     1  UNL1        0.1081
     30 C         138.1757  139.3404  166.1741 C.3     1  UNL1        0.0521
     31 C         139.1803  140.3003  165.6090 C.ar    1  UNL1        0.0593
     32 C         138.9229  140.9646  164.2890 C.ar    1  UNL1        0.0148
     33 C         139.9275  141.9245  163.7238 C.ar    1  UNL1        0.0039
     34 C         141.1894  142.2202  164.4787 C.ar    1  UNL1        0.0310
     35 C         142.1940  143.1801  163.9136 C.ar    1  UNL1        0.0493
     36 C         143.4561  143.4758  164.6686 C.ar    1  UNL1        0.0146
     37 C         143.7135  142.8116  165.9886 C.ar    1  UNL1        0.0028
     38 C         142.7089  141.8517  166.5537 C.ar    1  UNL1        0.0192
     39 C         141.4469  141.5560  165.7988 C.ar    1  UNL1        0.0821
     40 N         140.4423  140.5960  166.3639 N.ar    1  UNL1       -0.2496
@<TRIPOS>BOND
     1    30    31    1
     2    31    32   ar
     3    32    33   ar
     4    33    34   ar
     5    34    35   ar
     6    35    24    1
     7    24    25    1
     8    25    26    1
     9    26    27    1
    10    27    23    1
    11    23    22    1
    12    22     1    1
    13     1     2   ar
    14     2     3   ar
    15     3     4   ar
    16     4     5   ar
    17     5     6   ar
    18     6     7    1
    19     7     8    1
    20     8     9    1
    21     9    10   ar
    22    10    14    1
    23    14    15    2
    24    14    16   am
    25    16    17    1
    26    17    18    1
    27    18    19    1
    28    19    20    1
    29    20    21    1
    30    10    11   ar
    31    11    12   ar
    32    12    13   ar
    33    27    28    1
    34    28    29    1
    35    35    36   ar
    36    36    37   ar
    37    37    38   ar
    38    38    39   ar
    39    39    40   ar
    40    40    31   ar
    41    39    34   ar
    42    29    24    1
    43     6     1   ar
    44    13     9   ar
    45    13     5    1
    46    21    16    1
@<TRIPOS>MOLECULE
*****
 40 46 0 0 0
SMALL
GASTEIGER

@<TRIPOS>ATOM
      1 C         142.9234  140.2232  156.3169 C.ar    1  UNL1        0.0146
      2 C         142.7075  140.5845  154.8772 C.ar    1  UNL1       -0.0011
      3 C         142.2457  141.9639  154.5113 C.ar    1  UNL1        0.0014
      4 C         141.9997  142.9820  155.5852 C.ar    1  UNL1        0.0206
      5 C         142.2156  142.6206  157.0249 C.ar    1  UNL1        0.0989
      6 C         142.6774  141.2412  157.3907 C.ar    1  UNL1        0.1511
      7 O         142.8933  140.8798  158.8305 O.3     1  UNL1       -0.4678
      8 C         142.6474  141.8978  159.9043 C.3     1  UNL1        0.2510
      9 C         142.1855  143.2773  159.5384 C.ar    1  UNL1        0.1087
     10 C         141.8635  144.4820  160.3720 C.ar    1  UNL1        0.1518
     11 N         141.4486  145.5880  159.4475 N.ar    1  UNL1       -0.2192
     12 C         141.5142  145.0667  158.0425 C.ar    1  UNL1        0.1828
     13 N         141.9696  143.6387  158.0987 N.ar    1  UNL1       -0.2851
     14 C         141.9425  144.5660  161.8676 C.2     1  UNL1        0.2682
     15 O         143.2682  144.7732  162.5381 O.2     1  UNL1       -0.2682
     16 N         140.6958  144.4428  162.6926 N.am    1  UNL1       -0.2697
     17 C         139.3701  144.2356  162.0221 C.3     1  UNL1        0.1258
     18 C         138.1235  144.1124  162.8471 C.3     1  UNL1        0.1637
     19 O         138.2025  144.1964  164.3427 O.3     1  UNL1       -0.3501
     20 C         139.5282  144.4036  165.0132 C.3     1  UNL1        0.1637
     21 C         140.7749  144.5268  164.1881 C.3     1  UNL1        0.1258
     22 C         143.3853  138.8437  156.6829 C.3     1  UNL1        0.0468
     23 C         142.4131  137.8538  157.2528 C.3     1  UNL1        0.0770
     24 N         140.9650  138.3057  161.4894 N.pl3   1  UNL1       -0.3046
     25 C         140.0696  138.6827  160.3465 C.3     1  UNL1        0.1081
     26 C         140.5523  138.5320  158.9343 C.3     1  UNL1        0.0938
     27 N         141.9304  138.0045  158.6649 N.3     1  UNL1       -0.2695
     28 C         142.8258  137.6275  159.8079 C.3     1  UNL1        0.0938
     29 C         142.3431  137.7781  161.2200 C.3     1  UNL1        0.1081
     30 C         143.0716  142.4576  166.5464 C.3     1  UNL1        0.0521
     31 C         142.4243  141.4573  165.6352 C.ar    1  UNL1        0.0593
     32 C         142.9070  141.3067  164.2230 C.ar    1  UNL1        0.0148
     33 C         142.2596  140.3064  163.3118 C.ar    1  UNL1        0.0039
     34 C         141.1296  139.4566  163.8127 C.ar    1  UNL1        0.0310
     35 C         140.4823  138.4563  162.9015 C.ar    1  UNL1        0.0493
     36 C         139.3522  137.6066  163.4026 C.ar    1  UNL1        0.0146
     37 C         138.8695  137.7572  164.8147 C.ar    1  UNL1        0.0028
     38 C         139.5168  138.7575  165.7259 C.ar    1  UNL1        0.0192
     39 C         140.6469  139.6072  165.2250 C.ar    1  UNL1        0.0821
     40 N         141.2942  140.6076  166.1362 N.ar    1  UNL1       -0.2496
@<TRIPOS>BOND
     1    30    31    1
     2    31    32   ar
     3    32    33   ar
     4    33    34   ar
     5    34    35   ar
     6    35    24    1
     7    24    25    1
     8    25    26    1
     9    26    27    1
    10    27    23    1
    11    23    22    1
    12    22     1    1
    13     1     2   ar
    14     2     3   ar
    15     3     4   ar
    16     4     5   ar
    17     5     6   ar
    18     6     7    1
    19     7     8    1
    20     8     9    1
    21     9    10   ar
    22    10    14    1
    23    14    15    2
    24    14    16   am
    25    16    17    1
    26    17    18    1
    27    18    19    1
    28    19    20    1
    29    20    21    1
    30    10    11   ar
    31    11    12   ar
    32    12    13   ar
    33    27    28    1
    34    28    29    1
    35    35    36   ar
    36    36    37   ar
    37    37    38   ar
    38    38    39   ar
    39    39    40   ar
    40    40    31   ar
    41    39    34   ar
    42    29    24    1
    43     6     1   ar
    44    13     9   ar
    45    13     5    1
    46    21    16    1
@<TRIPOS>MOLECULE
*****
 40 46 0 0 0
SMALL
GASTEIGER

@<TRIPOS>ATOM
      1 C         140.1024  140.9692  160.9043 C.ar    1  UNL1        0.0146
      2 C         138.7685  140.6383  160.3034 C.ar    1  UNL1       -0.0011
      3 C         137.6691  140.0983  161.1693 C.ar    1  UNL1        0.0014
      4 C         137.9037  139.8893  162.6360 C.ar    1  UNL1        0.0206
      5 C         139.2376  140.2202  163.2369 C.ar    1  UNL1        0.0989
      6 C         140.3370  140.7602  162.3710 C.ar    1  UNL1        0.1511
      7 O         141.6710  141.0911  162.9719 O.3     1  UNL1       -0.4678
      8 C         141.9055  140.8821  164.4386 C.3     1  UNL1        0.2510
      9 C         140.8060  140.3420  165.3045 C.ar    1  UNL1        0.1087
     10 C         140.7434  140.0330  166.7709 C.ar    1  UNL1        0.1518
     11 N         139.3707  139.5111  167.0764 N.ar    1  UNL1       -0.2192
     12 C         138.5850  139.4975  165.7987 C.ar    1  UNL1        0.1828
     13 N         139.4721  140.0111  164.7036 N.ar    1  UNL1       -0.2851
     14 C         141.8578  140.2141  167.7585 C.2     1  UNL1        0.2682
     15 O         142.9737  139.2138  167.8220 O.2     1  UNL1       -0.2682
     16 N         141.8561  141.3956  168.6828 N.am    1  UNL1       -0.2697
     17 C         140.7402  142.3959  168.6195 C.3     1  UNL1        0.1258
     18 C         140.7386  143.5773  169.5437 C.3     1  UNL1        0.1637
     19 O         141.8530  143.7584  170.5313 O.3     1  UNL1       -0.3501
     20 C         142.9689  142.7581  170.5947 C.3     1  UNL1        0.1637
     21 C         142.9705  141.5767  169.6704 C.3     1  UNL1        0.1258
     22 C         141.2019  141.5093  160.0385 C.3     1  UNL1        0.0468
     23 C         142.3912  140.6540  159.7159 C.3     1  UNL1        0.0770
     24 N         142.1194  137.5571  156.4623 N.pl3   1  UNL1       -0.3046
     25 C         141.0750  137.6088  157.5377 C.3     1  UNL1        0.1081
     26 C         141.1655  138.6411  158.6222 C.3     1  UNL1        0.0938
     27 N         142.3006  139.6217  158.6314 N.3     1  UNL1       -0.2695
     28 C         143.3451  139.5700  157.5560 C.3     1  UNL1        0.0938
     29 C         143.2545  138.5378  156.4715 C.3     1  UNL1        0.1081
     30 C         144.6721  131.1857  156.0896 C.3     1  UNL1        0.0521
     31 C         144.0113  132.5205  155.9117 C.ar    1  UNL1        0.0593
     32 C         144.1019  133.5528  156.9962 C.ar    1  UNL1        0.0148
     33 C         143.4411  134.8876  156.8182 C.ar    1  UNL1        0.0039
     34 C         142.6897  135.1901  155.5558 C.ar    1  UNL1        0.0310
     35 C         142.0289  136.5249  155.3778 C.ar    1  UNL1        0.0493
     36 C         141.2774  136.8274  154.1153 C.ar    1  UNL1        0.0146
     37 C         141.1868  135.7951  153.0308 C.ar    1  UNL1        0.0028
     38 C         141.8476  134.4603  153.2087 C.ar    1  UNL1        0.0192
     39 C         142.5990  134.1578  154.4712 C.ar    1  UNL1        0.0821
     40 N         143.2599  132.8230  154.6491 N.ar    1  UNL1       -0.2496
@<TRIPOS>BOND
     1    30    31    1
     2    31    32   ar
     3    32    33   ar
     4    33    34   ar
     5    34    35   ar
     6    35    24    1
     7    24    25    1
     8    25    26    1
     9    26    27    1
    10    27    23    1
    11    23    22    1
    12    22     1    1
    13     1     2   ar
    14     2     3   ar
    15     3     4   ar
    16     4     5   ar
    17     5     6   ar
    18     6     7    1
    19     7     8    1
    20     8     9    1
    21     9    10   ar
    22    10    14    1
    23    14    15    2
    24    14    16   am
    25    16    17    1
    26    17    18    1
    27    18    19    1
    28    19    20    1
    29    20    21    1
    30    10    11   ar
    31    11    12   ar
    32    12    13   ar
    33    27    28    1
    34    28    29    1
    35    35    36   ar
    36    36    37   ar
    37    37    38   ar
    38    38    39   ar
    39    39    40   ar
    40    40    31   ar
    41    39    34   ar
    42    29    24    1
    43     6     1   ar
    44    13     9   ar
    45    13     5    1
    46    21    16    1
@<TRIPOS>MOLECULE
*****
 40 46 0 0 0
SMALL
GASTEIGER

@<TRIPOS>ATOM
      1 C         142.1382  141.1335  156.4399 C.ar    1  UNL1        0.0146
      2 C         142.6783  141.9159  155.2797 C.ar    1  UNL1       -0.0011
      3 C         142.6003  143.4138  155.2840 C.ar    1  UNL1        0.0014
      4 C         141.9821  144.1294  156.4484 C.ar    1  UNL1        0.0206
      5 C         141.4420  143.3469  157.6086 C.ar    1  UNL1        0.0989
      6 C         141.5200  141.8490  157.6043 C.ar    1  UNL1        0.1511
      7 O         140.9799  141.0665  158.7645 O.3     1  UNL1       -0.4678
      8 C         140.3618  141.7820  159.9290 C.3     1  UNL1        0.2510
      9 C         140.2838  143.2801  159.9332 C.ar    1  UNL1        0.1087
     10 C         139.7346  144.2536  160.9335 C.ar    1  UNL1        0.1518
     11 N         139.9353  145.6378  160.3915 N.ar    1  UNL1       -0.2192
     12 C         140.6085  145.5196  159.0562 C.ar    1  UNL1        0.1828
     13 N         140.8239  144.0625  158.7730 N.ar    1  UNL1       -0.2851
     14 C         139.0967  143.9044  162.2454 C.2     1  UNL1        0.2682
     15 O         137.6077  143.9938  162.4028 O.2     1  UNL1       -0.2682
     16 N         139.9480  143.4657  163.3999 N.am    1  UNL1       -0.2697
     17 C         141.4370  143.3762  163.2427 C.3     1  UNL1        0.1258
     18 C         142.2881  142.9376  164.3973 C.3     1  UNL1        0.1637
     19 O         141.6503  142.5883  165.7092 O.3     1  UNL1       -0.3501
     20 C         140.1612  142.6777  165.8665 C.3     1  UNL1        0.1637
     21 C         139.3101  143.1164  164.7119 C.3     1  UNL1        0.1258
     22 C         142.2162  139.6355  156.4356 C.3     1  UNL1        0.0468
     23 C         143.3000  138.9388  157.2036 C.3     1  UNL1        0.0770
     24 N         143.2553  138.9848  161.7032 N.pl3   1  UNL1       -0.3046
     25 C         143.9731  140.0647  160.9492 C.3     1  UNL1        0.1081
     26 C         143.9880  140.0494  159.4493 C.3     1  UNL1        0.0938
     27 N         143.2851  138.9541  158.7034 N.3     1  UNL1       -0.2695
     28 C         142.5673  137.8742  159.4575 C.3     1  UNL1        0.0938
     29 C         142.5524  137.8896  160.9573 C.3     1  UNL1        0.1081
     30 C         138.0171  139.1883  166.1495 C.3     1  UNL1        0.0521
     31 C         139.3229  139.1413  165.4129 C.ar    1  UNL1        0.0593
     32 C         139.3378  139.1259  163.9131 C.ar    1  UNL1        0.0148
     33 C         140.6437  139.0789  163.1764 C.ar    1  UNL1        0.0039
     34 C         141.9346  139.0472  163.9396 C.ar    1  UNL1        0.0310
     35 C         143.2404  139.0002  163.2030 C.ar    1  UNL1        0.0493
     36 C         144.5313  138.9686  163.9662 C.ar    1  UNL1        0.0146
     37 C         144.5164  138.9840  165.4661 C.ar    1  UNL1        0.0028
     38 C         143.2106  139.0310  166.2027 C.ar    1  UNL1        0.0192
     39 C         141.9197  139.0626  165.4395 C.ar    1  UNL1        0.0821
     40 N         140.6139  139.1096  166.1761 N.ar    1  UNL1       -0.2496
@<TRIPOS>BOND
     1    30    31    1
     2    31    32   ar
     3    32    33   ar
     4    33    34   ar
     5    34    35   ar
     6    35    24    1
     7    24    25    1
     8    25    26    1
     9    26    27    1
    10    27    23    1
    11    23    22    1
    12    22     1    1
    13     1     2   ar
    14     2     3   ar
    15     3     4   ar
    16     4     5   ar
    17     5     6   ar
    18     6     7    1
    19     7     8    1
    20     8     9    1
    21     9    10   ar
    22    10    14    1
    23    14    15    2
    24    14    16   am
    25    16    17    1
    26    17    18    1
    27    18    19    1
    28    19    20    1
    29    20    21    1
    30    10    11   ar
    31    11    12   ar
    32    12    13   ar
    33    27    28    1
    34    28    29    1
    35    35    36   ar
    36    36    37   ar
    37    37    38   ar
    38    38    39   ar
    39    39    40   ar
    40    40    31   ar
    41    39    34   ar
    42    29    24    1
    43     6     1   ar
    44    13     9   ar
    45    13     5    1
    46    21    16    1
@<TRIPOS>MOLECULE
*****
 40 46 0 0 0
SMALL
GASTEIGER

@<TRIPOS>ATOM
      1 C         138.9955  142.0297  161.7564 C.ar    1  UNL1        0.0146
      2 C         139.4349  142.9821  160.6840 C.ar    1  UNL1       -0.0011
      3 C         140.7033  143.7653  160.8503 C.ar    1  UNL1        0.0014
      4 C         141.5323  143.5962  162.0889 C.ar    1  UNL1        0.0206
      5 C         141.0929  142.6439  163.1613 C.ar    1  UNL1        0.0989
      6 C         139.8245  141.8607  162.9950 C.ar    1  UNL1        0.1511
      7 O         139.3850  140.9083  164.0674 O.3     1  UNL1       -0.4678
      8 C         140.2140  140.7392  165.3060 C.3     1  UNL1        0.2510
      9 C         141.4825  141.5225  165.4722 C.ar    1  UNL1        0.1087
     10 C         142.4983  141.5654  166.5750 C.ar    1  UNL1        0.1518
     11 N         143.5656  142.5443  166.1842 N.ar    1  UNL1       -0.2192
     12 C         143.2093  143.1064  164.8399 C.ar    1  UNL1        0.1828
     13 N         141.9219  142.4748  164.3999 N.ar    1  UNL1       -0.2851
     14 C         142.4546  140.7693  167.8455 C.2     1  UNL1        0.2682
     15 O         143.1328  139.4333  167.9172 O.2     1  UNL1       -0.2682
     16 N         141.7325  141.3091  169.0444 N.am    1  UNL1       -0.2697
     17 C         141.0543  142.6451  168.9728 C.3     1  UNL1        0.1258
     18 C         140.3322  143.1849  170.1717 C.3     1  UNL1        0.1637
     19 O         140.2885  142.3887  171.4422 O.3     1  UNL1       -0.3501
     20 C         140.9668  141.0528  171.5138 C.3     1  UNL1        0.1637
     21 C         141.6888  140.5130  170.3149 C.3     1  UNL1        0.1258
     22 C         137.7271  141.2464  161.5901 C.3     1  UNL1        0.0468
     23 C         137.7765  139.8410  161.0684 C.3     1  UNL1        0.0770
     24 N         140.9902  138.6324  158.1595 N.pl3   1  UNL1       -0.3046
     25 C         139.7814  139.3767  157.6750 C.3     1  UNL1        0.1081
     26 C         138.7101  139.7796  158.6446 C.3     1  UNL1        0.0938
     27 N         138.8477  139.4381  160.0988 N.3     1  UNL1       -0.2695
     28 C         140.0565  138.6937  160.5832 C.3     1  UNL1        0.0938
     29 C         141.1277  138.2908  159.6136 C.3     1  UNL1        0.1081
     30 C         146.7004  141.8907  156.1528 C.3     1  UNL1        0.0521
     31 C         145.5406  140.9754  156.4121 C.ar    1  UNL1        0.0593
     32 C         144.4694  141.3782  157.3817 C.ar    1  UNL1        0.0148
     33 C         143.3097  140.4630  157.6410 C.ar    1  UNL1        0.0039
     34 C         143.2211  139.1448  156.9306 C.ar    1  UNL1        0.0310
     35 C         142.0614  138.2295  157.1899 C.ar    1  UNL1        0.0493
     36 C         141.9729  136.9113  156.4795 C.ar    1  UNL1        0.0146
     37 C         143.0441  136.5085  155.5099 C.ar    1  UNL1        0.0028
     38 C         144.2038  137.4238  155.2506 C.ar    1  UNL1        0.0192
     39 C         144.2924  138.7419  155.9610 C.ar    1  UNL1        0.0821
     40 N         145.4521  139.6572  155.7017 N.ar    1  UNL1       -0.2496
@<TRIPOS>BOND
     1    30    31    1
     2    31    32   ar
     3    32    33   ar
     4    33    34   ar
     5    34    35   ar
     6    35    24    1
     7    24    25    1
     8    25    26    1
     9    26    27    1
    10    27    23    1
    11    23    22    1
    12    22     1    1
    13     1     2   ar
    14     2     3   ar
    15     3     4   ar
    16     4     5   ar
    17     5     6   ar
    18     6     7    1
    19     7     8    1
    20     8     9    1
    21     9    10   ar
    22    10    14    1
    23    14    15    2
    24    14    16   am
    25    16    17    1
    26    17    18    1
    27    18    19    1
    28    19    20    1
    29    20    21    1
    30    10    11   ar
    31    11    12   ar
    32    12    13   ar
    33    27    28    1
    34    28    29    1
    35    35    36   ar
    36    36    37   ar
    37    37    38   ar
    38    38    39   ar
    39    39    40   ar
    40    40    31   ar
    41    39    34   ar
    42    29    24    1
    43     6     1   ar
    44    13     9   ar
    45    13     5    1
    46    21    16    1
@<TRIPOS>MOLECULE
*****
 40 46 0 0 0
SMALL
GASTEIGER

@<TRIPOS>ATOM
      1 C         139.1843  143.3704  162.0449 C.ar    1  UNL1        0.0146
      2 C         138.3981  142.8333  160.8859 C.ar    1  UNL1       -0.0011
      3 C         138.1403  141.3600  160.7729 C.ar    1  UNL1        0.0014
      4 C         138.6687  140.4237  161.8189 C.ar    1  UNL1        0.0206
      5 C         139.4550  140.9608  162.9779 C.ar    1  UNL1        0.0989
      6 C         139.7128  142.4341  163.0909 C.ar    1  UNL1        0.1511
      7 O         140.4990  142.9712  164.2499 O.3     1  UNL1       -0.4678
      8 C         141.0275  142.0350  165.2960 C.3     1  UNL1        0.2510
      9 C         140.7696  140.5616  165.1829 C.ar    1  UNL1        0.1087
     10 C         141.1612  139.4045  166.0534 C.ar    1  UNL1        0.1518
     11 N         140.6169  138.1522  165.4324 N.ar    1  UNL1       -0.2192
     12 C         139.8890  138.5355  164.1781 C.ar    1  UNL1        0.1828
     13 N         139.9834  140.0245  164.0239 N.ar    1  UNL1       -0.2851
     14 C         141.9573  139.4854  167.3222 C.2     1  UNL1        0.2682
     15 O         143.4099  139.1117  167.3213 O.2     1  UNL1       -0.2682
     16 N         141.3005  139.9400  168.5918 N.am    1  UNL1       -0.2697
     17 C         139.8479  140.3138  168.5928 C.3     1  UNL1        0.1258
     18 C         139.1912  140.7684  169.8625 C.3     1  UNL1        0.1637
     19 O         139.9873  140.8493  171.1313 O.3     1  UNL1       -0.3501
     20 C         141.4400  140.4756  171.1303 C.3     1  UNL1        0.1637
     21 C         142.0966  140.0209  169.8606 C.3     1  UNL1        0.1258
     22 C         139.4422  144.8438  162.1579 C.3     1  UNL1        0.0468
     23 C         140.7527  145.4130  161.7012 C.3     1  UNL1        0.0770
     24 N         143.3633  143.0703  158.8823 N.pl3   1  UNL1       -0.3046
     25 C         142.3247  144.0066  158.3395 C.3     1  UNL1        0.1081
     26 C         141.4545  144.7876  159.2792 C.3     1  UNL1        0.0938
     27 N         141.6228  144.6321  160.7616 N.3     1  UNL1       -0.2695
     28 C         142.6615  143.6957  161.3043 C.3     1  UNL1        0.0938
     29 C         143.5316  142.9148  160.3647 C.3     1  UNL1        0.1081
     30 C         142.5388  136.8292  156.1219 C.3     1  UNL1        0.0521
     31 C         142.9625  138.1943  156.5771 C.ar    1  UNL1        0.0593
     32 C         142.0923  138.9752  157.5167 C.ar    1  UNL1        0.0148
     33 C         142.5160  140.3402  157.9719 C.ar    1  UNL1        0.0039
     34 C         143.8098  140.9243  157.4875 C.ar    1  UNL1        0.0310
     35 C         144.2335  142.2894  157.9427 C.ar    1  UNL1        0.0493
     36 C         145.5274  142.8735  157.4582 C.ar    1  UNL1        0.0146
     37 C         146.3976  142.0926  156.5186 C.ar    1  UNL1        0.0028
     38 C         145.9739  140.7276  156.0634 C.ar    1  UNL1        0.0192
     39 C         144.6801  140.1434  156.5478 C.ar    1  UNL1        0.0821
     40 N         144.2564  138.7784  156.0926 N.ar    1  UNL1       -0.2496
@<TRIPOS>BOND
     1    30    31    1
     2    31    32   ar
     3    32    33   ar
     4    33    34   ar
     5    34    35   ar
     6    35    24    1
     7    24    25    1
     8    25    26    1
     9    26    27    1
    10    27    23    1
    11    23    22    1
    12    22     1    1
    13     1     2   ar
    14     2     3   ar
    15     3     4   ar
    16     4     5   ar
    17     5     6   ar
    18     6     7    1
    19     7     8    1
    20     8     9    1
    21     9    10   ar
    22    10    14    1
    23    14    15    2
    24    14    16   am
    25    16    17    1
    26    17    18    1
    27    18    19    1
    28    19    20    1
    29    20    21    1
    30    10    11   ar
    31    11    12   ar
    32    12    13   ar
    33    27    28    1
    34    28    29    1
    35    35    36   ar
    36    36    37   ar
    37    37    38   ar
    38    38    39   ar
    39    39    40   ar
    40    40    31   ar
    41    39    34   ar
    42    29    24    1
    43     6     1   ar
    44    13     9   ar
    45    13     5    1
    46    21    16    1
