@<TRIPOS>MOLECULE
*****
 39 42 0 0 0
SMALL
GASTEIGER

@<TRIPOS>ATOM
      1 C         141.6570  139.3361  161.7158 C.ar    1  UNL1        0.0674
      2 C         141.4067  137.8580  161.7652 C.ar    1  UNL1        0.1133
      3 N         140.5308  137.2811  162.8375 N.ar    1  UNL1       -0.2425
      4 C         139.9051  138.1824  163.8604 C.ar    1  UNL1        0.0825
      5 C         139.0291  137.6055  164.9327 C.ar    1  UNL1        0.0230
      6 C         138.4034  138.5067  165.9556 C.ar    1  UNL1        0.0741
      7 C         138.6538  139.9849  165.9061 C.ar    1  UNL1        0.0183
      8 C         139.5297  140.5618  164.8338 C.ar    1  UNL1        0.0463
      9 C         140.1554  139.6605  163.8110 C.ar    1  UNL1        0.0320
     10 C         141.0313  140.2374  162.7387 C.ar    1  UNL1        0.0188
     11 C         145.1610  141.6439  157.4266 C.2     1  UNL1        0.2398
     12 O         146.0137  142.8427  157.7191 O.2     1  UNL1       -0.2734
     13 N         144.2850  141.0669  158.4988 N.am    1  UNL1       -0.2750
     14 C         143.4322  139.8681  158.2063 C.3     1  UNL1        0.1149
     15 C         142.5562  139.2912  159.2787 C.3     1  UNL1        0.1124
     16 N         142.5330  139.9131  160.6434 N.pl3   1  UNL1       -0.3028
     17 C         143.3858  141.1119  160.9360 C.3     1  UNL1        0.1124
     18 C         144.2618  141.6888  159.8637 C.3     1  UNL1        0.1149
     19 C         144.4506  141.6745  154.9277 C.3     1  UNL1        0.0267
     20 C         145.1841  141.0220  156.0618 C.3     1  UNL1        0.1286
     21 N         145.9408  139.7475  155.8311 N.3     1  UNL1       -0.3150
     22 H         145.8494  139.4700  154.8538 H       1  UNL1        0.1192
     23 H         145.5617  139.0139  156.4298 H       1  UNL1        0.1192
     24 C         137.5275  137.9299  167.0279 C.3     1  UNL1        0.4187
     25 F         136.6515  137.3529  168.1003 F       1  UNL1       -0.1659
     26 F         137.5559  136.5996  166.3355 F       1  UNL1       -0.1659
     27 F         137.4990  139.2602  167.7203 F       1  UNL1       -0.1659
     28 N         139.7800  142.0399  164.7844 N.pl3   1  UNL1       -0.3290
     29 H         139.2049  142.6184  164.2331 H       1  UNL1        0.1471
     30 C         140.9065  142.6367  165.5749 C.3     1  UNL1        0.1145
     31 C         141.2666  142.0669  166.9150 C.ar    1  UNL1        0.0035
     32 C         142.2392  140.9289  167.0093 C.ar    1  UNL1       -0.0022
     33 C         142.5994  140.3592  168.3492 C.ar    1  UNL1        0.0060
     34 C         141.9869  140.9275  169.5951 C.ar    1  UNL1        0.0752
     35 C         141.0143  142.0655  169.5008 C.ar    1  UNL1        0.2898
     36 C         140.6542  142.6353  168.1607 C.ar    1  UNL1        0.0727
     37 N         140.4019  142.6338  170.7465 N.pl3   1  UNL1        0.0809
     38 O         139.5539  143.8688  170.6694 O.2     1  UNL1        0.0415
     39 O         140.6373  141.9672  172.0694 O.co2   1  UNL1       -0.5760
@<TRIPOS>UNITY_ATOM_ATTR
37 1
charge 1
39 1
charge -1
@<TRIPOS>BOND
     1    20    19    1
     2    20    21    1
     3    20    11    1
     4    11    12    2
     5    11    13   am
     6    13    14    1
     7    14    15    1
     8    15    16    1
     9    16     1    1
    10     1     2   ar
    11     2     3   ar
    12     3     4   ar
    13     4     5   ar
    14     5     6   ar
    15     6    24    1
    16    24    25    1
    17    24    26    1
    18    24    27    1
    19     6     7   ar
    20     7     8   ar
    21     8    28    1
    22    28    30    1
    23    30    31    1
    24    31    32   ar
    25    32    33   ar
    26    33    34   ar
    27    34    35   ar
    28    35    37    1
    29    37    38    2
    30    37    39    1
    31    35    36   ar
    32     8     9   ar
    33     9    10   ar
    34    16    17    1
    35    17    18    1
    36    18    13    1
    37    10     1   ar
    38     9     4   ar
    39    36    31   ar
    40    21    22    1
    41    21    23    1
    42    28    29    1
@<TRIPOS>MOLECULE
*****
 39 42 0 0 0
SMALL
GASTEIGER

@<TRIPOS>ATOM
      1 C         141.7054  139.0949  161.7481 C.ar    1  UNL1        0.0674
      2 C         141.8090  137.6464  162.1237 C.ar    1  UNL1        0.1133
      3 N         140.9874  137.1045  163.2556 N.ar    1  UNL1       -0.2425
      4 C         140.0622  138.0112  164.0119 C.ar    1  UNL1        0.0825
      5 C         139.2406  137.4692  165.1439 C.ar    1  UNL1        0.0230
      6 C         138.3154  138.3759  165.9003 C.ar    1  UNL1        0.0741
      7 C         138.2118  139.8244  165.5246 C.ar    1  UNL1        0.0183
      8 C         139.0334  140.3663  164.3927 C.ar    1  UNL1        0.0463
      9 C         139.9586  139.4596  163.6364 C.ar    1  UNL1        0.0320
     10 C         140.7802  140.0015  162.5044 C.ar    1  UNL1        0.0188
     11 C         144.9918  141.2626  157.2203 C.2     1  UNL1        0.2398
     12 O         145.7775  142.5273  157.4022 O.2     1  UNL1       -0.2734
     13 N         144.1702  140.7206  158.3522 N.am    1  UNL1       -0.2750
     14 C         143.3846  139.4559  158.1703 C.3     1  UNL1        0.1149
     15 C         142.5629  138.9140  159.3023 C.3     1  UNL1        0.1124
     16 N         142.5270  139.6368  160.6161 N.pl3   1  UNL1       -0.3028
     17 C         143.3127  140.9016  160.7980 C.3     1  UNL1        0.1124
     18 C         144.1343  141.4435  159.6661 C.3     1  UNL1        0.1149
     19 C         144.1771  141.0144  154.7658 C.3     1  UNL1        0.0267
     20 C         145.0278  140.5398  155.9065 C.3     1  UNL1        0.1286
     21 N         145.9143  139.3422  155.7333 N.3     1  UNL1       -0.3150
     22 H         145.8137  138.9790  154.7855 H       1  UNL1        0.1192
     23 H         145.6471  138.6215  156.4038 H       1  UNL1        0.1192
     24 C         137.4938  137.8340  167.0322 C.3     1  UNL1        0.4187
     25 F         136.6721  137.2921  168.1642 F       1  UNL1       -0.1659
     26 F         137.4769  136.4860  166.3746 F       1  UNL1       -0.1659
     27 F         137.5107  139.1821  167.6898 F       1  UNL1       -0.1659
     28 N         138.9299  141.8148  164.0171 N.pl3   1  UNL1       -0.3290
     29 H         138.5731  142.0705  163.1359 H       1  UNL1        0.1471
     30 C         139.3698  142.8736  164.9842 C.3     1  UNL1        0.1145
     31 C         140.6083  142.6710  165.8059 C.ar    1  UNL1        0.0035
     32 C         140.5043  142.1109  167.1935 C.ar    1  UNL1       -0.0022
     33 C         141.7427  141.9083  168.0153 C.ar    1  UNL1        0.0060
     34 C         143.0851  142.2657  167.4494 C.ar    1  UNL1        0.0752
     35 C         143.1891  142.8258  166.0618 C.ar    1  UNL1        0.2898
     36 C         141.9507  143.0284  165.2401 C.ar    1  UNL1        0.0727
     37 N         144.5315  143.1833  165.4960 N.pl3   1  UNL1        0.0809
     38 O         145.3325  144.2933  166.1092 O.2     1  UNL1        0.0415
     39 O         145.0728  142.4306  164.3168 O.co2   1  UNL1       -0.5760
@<TRIPOS>UNITY_ATOM_ATTR
37 1
charge 1
39 1
charge -1
@<TRIPOS>BOND
     1    20    19    1
     2    20    21    1
     3    20    11    1
     4    11    12    2
     5    11    13   am
     6    13    14    1
     7    14    15    1
     8    15    16    1
     9    16     1    1
    10     1     2   ar
    11     2     3   ar
    12     3     4   ar
    13     4     5   ar
    14     5     6   ar
    15     6    24    1
    16    24    25    1
    17    24    26    1
    18    24    27    1
    19     6     7   ar
    20     7     8   ar
    21     8    28    1
    22    28    30    1
    23    30    31    1
    24    31    32   ar
    25    32    33   ar
    26    33    34   ar
    27    34    35   ar
    28    35    37    1
    29    37    38    2
    30    37    39    1
    31    35    36   ar
    32     8     9   ar
    33     9    10   ar
    34    16    17    1
    35    17    18    1
    36    18    13    1
    37    10     1   ar
    38     9     4   ar
    39    36    31   ar
    40    21    22    1
    41    21    23    1
    42    28    29    1
@<TRIPOS>MOLECULE
*****
 39 42 0 0 0
SMALL
GASTEIGER

@<TRIPOS>ATOM
      1 C         140.5359  140.3890  160.0961 C.ar    1  UNL1        0.0674
      2 C         140.9030  141.8110  159.7908 C.ar    1  UNL1        0.1133
      3 N         140.5523  142.9007  160.7600 N.ar    1  UNL1       -0.2425
      4 C         139.8344  142.5685  162.0345 C.ar    1  UNL1        0.0825
      5 C         139.4837  143.6583  163.0038 C.ar    1  UNL1        0.0230
      6 C         138.7659  143.3261  164.2783 C.ar    1  UNL1        0.0741
      7 C         138.3988  141.9040  164.5835 C.ar    1  UNL1        0.0183
      8 C         138.7495  140.8143  163.6143 C.ar    1  UNL1        0.0463
      9 C         139.4673  141.1465  162.3398 C.ar    1  UNL1        0.0320
     10 C         139.8180  140.0568  161.3705 C.ar    1  UNL1        0.0188
     11 C         141.9385  136.0298  156.2191 C.2     1  UNL1        0.2398
     12 O         140.8991  135.5031  155.2746 O.2     1  UNL1       -0.2734
     13 N         141.5879  137.1196  157.1883 N.am    1  UNL1       -0.2750
     14 C         142.6274  137.6464  158.1328 C.3     1  UNL1        0.1149
     15 C         142.2767  138.7362  159.1021 C.3     1  UNL1        0.1124
     16 N         140.8866  139.2992  159.1268 N.pl3   1  UNL1       -0.3028
     17 C         139.8471  138.7724  158.1823 C.3     1  UNL1        0.1124
     18 C         140.1978  137.6826  157.2131 C.3     1  UNL1        0.1149
     19 C         143.6600  134.2509  157.0079 C.3     1  UNL1        0.0267
     20 C         143.3286  135.4669  156.1944 C.3     1  UNL1        0.1286
     21 N         144.3875  136.1198  155.3562 N.3     1  UNL1       -0.3150
     22 H         145.2646  135.6093  155.4581 H       1  UNL1        0.1192
     23 H         144.5175  137.0839  155.6629 H       1  UNL1        0.1192
     24 C         138.4152  144.4158  165.2475 C.3     1  UNL1        0.4187
     25 F         138.0645  145.5056  166.2168 F       1  UNL1       -0.1659
     26 F         139.6229  144.0740  166.0688 F       1  UNL1       -0.1659
     27 F         137.2075  144.7576  164.4262 F       1  UNL1       -0.1659
     28 N         138.3823  139.3924  163.9195 N.pl3   1  UNL1       -0.3290
     29 H         137.5820  138.9917  163.5095 H       1  UNL1        0.1471
     30 C         139.2347  138.5808  164.8495 C.3     1  UNL1        0.1145
     31 C         139.8724  139.2305  166.0417 C.ar    1  UNL1        0.0035
     32 C         141.3212  139.6167  165.9998 C.ar    1  UNL1       -0.0022
     33 C         141.9590  140.2664  167.1919 C.ar    1  UNL1        0.0060
     34 C         141.1479  140.5299  168.4260 C.ar    1  UNL1        0.0752
     35 C         139.6991  140.1437  168.4679 C.ar    1  UNL1        0.2898
     36 C         139.0614  139.4940  167.2757 C.ar    1  UNL1        0.0727
     37 N         138.8880  140.4072  169.7018 N.pl3   1  UNL1        0.0809
     38 O         139.2252  141.5704  170.5868 O.2     1  UNL1        0.0415
     39 O         137.7398  139.5074  170.0508 O.co2   1  UNL1       -0.5760
@<TRIPOS>UNITY_ATOM_ATTR
37 1
charge 1
39 1
charge -1
@<TRIPOS>BOND
     1    20    19    1
     2    20    21    1
     3    20    11    1
     4    11    12    2
     5    11    13   am
     6    13    14    1
     7    14    15    1
     8    15    16    1
     9    16     1    1
    10     1     2   ar
    11     2     3   ar
    12     3     4   ar
    13     4     5   ar
    14     5     6   ar
    15     6    24    1
    16    24    25    1
    17    24    26    1
    18    24    27    1
    19     6     7   ar
    20     7     8   ar
    21     8    28    1
    22    28    30    1
    23    30    31    1
    24    31    32   ar
    25    32    33   ar
    26    33    34   ar
    27    34    35   ar
    28    35    37    1
    29    37    38    2
    30    37    39    1
    31    35    36   ar
    32     8     9   ar
    33     9    10   ar
    34    16    17    1
    35    17    18    1
    36    18    13    1
    37    10     1   ar
    38     9     4   ar
    39    36    31   ar
    40    21    22    1
    41    21    23    1
    42    28    29    1
@<TRIPOS>MOLECULE
*****
 39 42 0 0 0
SMALL
GASTEIGER

@<TRIPOS>ATOM
      1 C         142.2093  143.6550  161.7056 C.ar    1  UNL1        0.0674
      2 C         143.6335  143.2774  161.9867 C.ar    1  UNL1        0.1133
      3 N         144.0228  142.7792  163.3470 N.ar    1  UNL1       -0.2425
      4 C         142.9878  142.6585  164.4260 C.ar    1  UNL1        0.0825
      5 C         143.3771  142.1603  165.7863 C.ar    1  UNL1        0.0230
      6 C         142.3422  142.0396  166.8653 C.ar    1  UNL1        0.0741
      7 C         140.9180  142.4172  166.5841 C.ar    1  UNL1        0.0183
      8 C         140.5287  142.9154  165.2239 C.ar    1  UNL1        0.0463
      9 C         141.5636  143.0361  164.1448 C.ar    1  UNL1        0.0320
     10 C         141.1744  143.5343  162.7846 C.ar    1  UNL1        0.0188
     11 C         140.6522  145.6480  156.2646 C.2     1  UNL1        0.2398
     12 O         141.5081  145.3275  155.0752 O.2     1  UNL1       -0.2734
     13 N         141.0414  145.1497  157.6249 N.am    1  UNL1       -0.2750
     14 C         140.1855  145.4702  158.8143 C.3     1  UNL1        0.1149
     15 C         140.5748  144.9720  160.1745 C.3     1  UNL1        0.1124
     16 N         141.8200  144.1533  160.3453 N.pl3   1  UNL1       -0.3028
     17 C         142.6759  143.8328  159.1559 C.3     1  UNL1        0.1124
     18 C         142.2867  144.3310  157.7957 C.3     1  UNL1        0.1149
     19 C         138.2567  145.9252  155.2977 C.3     1  UNL1        0.0267
     20 C         139.4070  146.4667  156.0938 C.3     1  UNL1        0.1286
     21 N         139.3120  147.8268  156.7192 N.3     1  UNL1       -0.3150
     22 H         138.4039  148.2377  156.5030 H       1  UNL1        0.1192
     23 H         140.0520  148.4235  156.3492 H       1  UNL1        0.1192
     24 C         142.7315  141.5413  168.2255 C.3     1  UNL1        0.4187
     25 F         143.1207  141.0430  169.5858 F       1  UNL1       -0.1659
     26 F         141.6979  140.4590  168.1248 F       1  UNL1       -0.1659
     27 F         143.7650  142.6237  168.3262 F       1  UNL1       -0.1659
     28 N         139.1045  143.2930  164.9427 N.pl3   1  UNL1       -0.3290
     29 H         138.7918  144.2077  165.1291 H       1  UNL1        0.1471
     30 C         138.1568  142.2768  164.3777 C.3     1  UNL1        0.1145
     31 C         138.4677  140.8141  164.4956 C.ar    1  UNL1        0.0035
     32 C         138.2235  140.0975  165.7905 C.ar    1  UNL1       -0.0022
     33 C         138.5344  138.6348  165.9084 C.ar    1  UNL1        0.0060
     34 C         139.0895  137.8887  164.7314 C.ar    1  UNL1        0.0752
     35 C         139.3337  138.6054  163.4365 C.ar    1  UNL1        0.2898
     36 C         139.0228  140.0681  163.3186 C.ar    1  UNL1        0.0727
     37 N         139.8888  137.8594  162.2595 N.pl3   1  UNL1        0.0809
     38 O         139.2116  137.9538  160.9244 O.2     1  UNL1        0.0415
     39 O         141.1211  137.0189  162.4176 O.co2   1  UNL1       -0.5760
@<TRIPOS>UNITY_ATOM_ATTR
37 1
charge 1
39 1
charge -1
@<TRIPOS>BOND
     1    20    19    1
     2    20    21    1
     3    20    11    1
     4    11    12    2
     5    11    13   am
     6    13    14    1
     7    14    15    1
     8    15    16    1
     9    16     1    1
    10     1     2   ar
    11     2     3   ar
    12     3     4   ar
    13     4     5   ar
    14     5     6   ar
    15     6    24    1
    16    24    25    1
    17    24    26    1
    18    24    27    1
    19     6     7   ar
    20     7     8   ar
    21     8    28    1
    22    28    30    1
    23    30    31    1
    24    31    32   ar
    25    32    33   ar
    26    33    34   ar
    27    34    35   ar
    28    35    37    1
    29    37    38    2
    30    37    39    1
    31    35    36   ar
    32     8     9   ar
    33     9    10   ar
    34    16    17    1
    35    17    18    1
    36    18    13    1
    37    10     1   ar
    38     9     4   ar
    39    36    31   ar
    40    21    22    1
    41    21    23    1
    42    28    29    1
@<TRIPOS>MOLECULE
*****
 39 42 0 0 0
SMALL
GASTEIGER

@<TRIPOS>ATOM
      1 C         141.7637  138.8245  162.6013 C.ar    1  UNL1        0.0674
      2 C         141.5361  137.6999  163.5672 C.ar    1  UNL1        0.1133
      3 N         141.7229  137.9254  165.0383 N.ar    1  UNL1       -0.2425
      4 C         142.1373  139.2756  165.5435 C.ar    1  UNL1        0.0825
      5 C         142.3242  139.5011  167.0146 C.ar    1  UNL1        0.0230
      6 C         142.7386  140.8513  167.5198 C.ar    1  UNL1        0.0741
      7 C         142.9663  141.9760  166.5537 C.ar    1  UNL1        0.0183
      8 C         142.7794  141.7505  165.0826 C.ar    1  UNL1        0.0463
      9 C         142.3650  140.4003  164.5775 C.ar    1  UNL1        0.0320
     10 C         142.1782  140.1748  163.1064 C.ar    1  UNL1        0.0188
     11 C         141.0165  137.9226  156.7166 C.2     1  UNL1        0.2398
     12 O         142.2024  137.6288  155.8464 O.2     1  UNL1       -0.2734
     13 N         141.2033  138.1481  158.1878 N.am    1  UNL1       -0.2750
     14 C         140.0174  138.4419  159.0580 C.3     1  UNL1        0.1149
     15 C         140.2042  138.6674  160.5292 C.3     1  UNL1        0.1124
     16 N         141.5769  138.5991  161.1301 N.pl3   1  UNL1       -0.3028
     17 C         142.7628  138.3053  160.2598 C.3     1  UNL1        0.1124
     18 C         142.5760  138.0798  158.7887 C.3     1  UNL1        0.1149
     19 C         139.1180  139.2948  155.5928 C.3     1  UNL1        0.0267
     20 C         139.6439  137.9909  156.1158 C.3     1  UNL1        0.1286
     21 N         138.7969  136.7553  156.0378 N.3     1  UNL1       -0.3150
     22 H         137.9023  136.9832  155.6042 H       1  UNL1        0.1192
     23 H         138.6367  136.3931  156.9778 H       1  UNL1        0.1192
     24 C         142.9255  141.0768  168.9909 C.3     1  UNL1        0.4187
     25 F         143.1123  141.3023  170.4621 F       1  UNL1       -0.1659
     26 F         142.5279  139.6556  169.2592 F       1  UNL1       -0.1659
     27 F         143.3230  142.4980  168.7225 F       1  UNL1       -0.1659
     28 N         143.0071  142.8752  164.1166 N.pl3   1  UNL1       -0.3290
     29 H         143.7277  142.8123  163.4488 H       1  UNL1        0.1471
     30 C         142.1368  144.0958  164.1680 C.3     1  UNL1        0.1145
     31 C         140.6505  143.9643  164.0131 C.ar    1  UNL1        0.0035
     32 C         139.7337  144.5622  165.0387 C.ar    1  UNL1       -0.0022
     33 C         138.2476  144.4308  164.8838 C.ar    1  UNL1        0.0060
     34 C         137.6782  143.7014  163.7031 C.ar    1  UNL1        0.0752
     35 C         138.5950  143.1035  162.6775 C.ar    1  UNL1        0.2898
     36 C         140.0812  143.2350  162.8325 C.ar    1  UNL1        0.0727
     37 N         138.0257  142.3741  161.4969 N.pl3   1  UNL1        0.0809
     38 O         137.3151  141.0679  161.6937 O.2     1  UNL1        0.0415
     39 O         138.1669  142.9510  160.1195 O.co2   1  UNL1       -0.5760
@<TRIPOS>UNITY_ATOM_ATTR
37 1
charge 1
39 1
charge -1
@<TRIPOS>BOND
     1    20    19    1
     2    20    21    1
     3    20    11    1
     4    11    12    2
     5    11    13   am
     6    13    14    1
     7    14    15    1
     8    15    16    1
     9    16     1    1
    10     1     2   ar
    11     2     3   ar
    12     3     4   ar
    13     4     5   ar
    14     5     6   ar
    15     6    24    1
    16    24    25    1
    17    24    26    1
    18    24    27    1
    19     6     7   ar
    20     7     8   ar
    21     8    28    1
    22    28    30    1
    23    30    31    1
    24    31    32   ar
    25    32    33   ar
    26    33    34   ar
    27    34    35   ar
    28    35    37    1
    29    37    38    2
    30    37    39    1
    31    35    36   ar
    32     8     9   ar
    33     9    10   ar
    34    16    17    1
    35    17    18    1
    36    18    13    1
    37    10     1   ar
    38     9     4   ar
    39    36    31   ar
    40    21    22    1
    41    21    23    1
    42    28    29    1
@<TRIPOS>MOLECULE
*****
 39 42 0 0 0
SMALL
GASTEIGER

@<TRIPOS>ATOM
      1 C         141.3377  139.4580  161.3679 C.ar    1  UNL1        0.0674
      2 C         141.4584  137.9839  161.6177 C.ar    1  UNL1        0.1133
      3 N         140.7305  137.3564  162.7694 N.ar    1  UNL1       -0.2425
      4 C         139.8821  138.2031  163.6713 C.ar    1  UNL1        0.0825
      5 C         139.1542  137.5755  164.8231 C.ar    1  UNL1        0.0230
      6 C         138.3058  138.4222  165.7250 C.ar    1  UNL1        0.0741
      7 C         138.1852  139.8963  165.4751 C.ar    1  UNL1        0.0183
      8 C         138.9130  140.5238  164.3234 C.ar    1  UNL1        0.0463
      9 C         139.7615  139.6772  163.4215 C.ar    1  UNL1        0.0320
     10 C         140.4893  140.3046  162.2698 C.ar    1  UNL1        0.0188
     11 C         144.2490  141.9681  156.7609 C.2     1  UNL1        0.2398
     12 O         143.5341  142.9256  155.8540 O.2     1  UNL1       -0.2734
     13 N         143.5212  141.3406  157.9126 N.am    1  UNL1       -0.2750
     14 C         144.2360  140.3832  158.8194 C.3     1  UNL1        0.1149
     15 C         143.5082  139.7556  159.9712 C.3     1  UNL1        0.1124
     16 N         142.0656  140.0855  160.2161 N.pl3   1  UNL1       -0.3028
     17 C         141.3508  141.0430  159.3093 C.3     1  UNL1        0.1124
     18 C         142.0785  141.6705  158.1575 C.3     1  UNL1        0.1149
     19 C         146.7664  142.5591  157.0130 C.3     1  UNL1        0.0267
     20 C         145.6916  141.6382  156.5160 C.3     1  UNL1        0.1286
     21 N         146.0595  140.3875  155.7741 N.3     1  UNL1       -0.3150
     22 H         147.0747  140.3228  155.6993 H       1  UNL1        0.1192
     23 H         145.6507  140.4136  154.8400 H       1  UNL1        0.1192
     24 C         137.5780  137.7947  166.8767 C.3     1  UNL1        0.4187
     25 F         136.8501  137.1672  168.0285 F       1  UNL1       -0.1659
     26 F         137.4183  139.1445  167.5111 F       1  UNL1       -0.1659
     27 F         137.7377  136.4449  166.2423 F       1  UNL1       -0.1659
     28 N         138.7924  141.9979  164.0735 N.pl3   1  UNL1       -0.3290
     29 H         138.3076  142.3249  163.2815 H       1  UNL1        0.1471
     30 C         139.4106  142.9738  165.0303 C.3     1  UNL1        0.1145
     31 C         140.8573  142.8433  165.4046 C.ar    1  UNL1        0.0035
     32 C         141.9238  143.1597  164.3984 C.ar    1  UNL1       -0.0022
     33 C         143.3705  143.0292  164.7726 C.ar    1  UNL1        0.0060
     34 C         143.7507  142.5822  166.1531 C.ar    1  UNL1        0.0752
     35 C         142.6842  142.2657  167.1593 C.ar    1  UNL1        0.2898
     36 C         141.2375  142.3963  166.7850 C.ar    1  UNL1        0.0727
     37 N         143.0644  141.8188  168.5398 N.pl3   1  UNL1        0.0809
     38 O         143.4615  142.8310  169.5731 O.2     1  UNL1        0.0415
     39 O         143.0474  140.3596  168.8869 O.co2   1  UNL1       -0.5760
@<TRIPOS>UNITY_ATOM_ATTR
37 1
charge 1
39 1
charge -1
@<TRIPOS>BOND
     1    20    19    1
     2    20    21    1
     3    20    11    1
     4    11    12    2
     5    11    13   am
     6    13    14    1
     7    14    15    1
     8    15    16    1
     9    16     1    1
    10     1     2   ar
    11     2     3   ar
    12     3     4   ar
    13     4     5   ar
    14     5     6   ar
    15     6    24    1
    16    24    25    1
    17    24    26    1
    18    24    27    1
    19     6     7   ar
    20     7     8   ar
    21     8    28    1
    22    28    30    1
    23    30    31    1
    24    31    32   ar
    25    32    33   ar
    26    33    34   ar
    27    34    35   ar
    28    35    37    1
    29    37    38    2
    30    37    39    1
    31    35    36   ar
    32     8     9   ar
    33     9    10   ar
    34    16    17    1
    35    17    18    1
    36    18    13    1
    37    10     1   ar
    38     9     4   ar
    39    36    31   ar
    40    21    22    1
    41    21    23    1
    42    28    29    1
@<TRIPOS>MOLECULE
*****
 39 42 0 0 0
SMALL
GASTEIGER

@<TRIPOS>ATOM
      1 C         142.1560  139.3105  161.9607 C.ar    1  UNL1        0.0674
      2 C         143.2079  139.1247  163.0137 C.ar    1  UNL1        0.1133
      3 N         142.8393  139.2099  164.4652 N.ar    1  UNL1       -0.2425
      4 C         141.4188  139.4808  164.8636 C.ar    1  UNL1        0.0825
      5 C         141.0502  139.5659  166.3152 C.ar    1  UNL1        0.0230
      6 C         139.6297  139.8368  166.7136 C.ar    1  UNL1        0.0741
      7 C         138.5778  140.0227  165.6605 C.ar    1  UNL1        0.0183
      8 C         138.9464  139.9375  164.2090 C.ar    1  UNL1        0.0463
      9 C         140.3669  139.6666  163.8106 C.ar    1  UNL1        0.0320
     10 C         140.7355  139.5815  162.3591 C.ar    1  UNL1        0.0188
     11 C         143.6304  138.9702  156.1546 C.2     1  UNL1        0.2398
     12 O         144.0786  140.1995  155.4213 O.2     1  UNL1       -0.2734
     13 N         143.2618  139.0552  157.6061 N.am    1  UNL1       -0.2750
     14 C         142.8135  137.8259  158.3393 C.3     1  UNL1        0.1149
     15 C         142.4449  137.9110  159.7909 C.3     1  UNL1        0.1124
     16 N         142.5246  139.2254  160.5091 N.pl3   1  UNL1       -0.3028
     17 C         142.9729  140.4548  159.7758 C.3     1  UNL1        0.1124
     18 C         143.3415  140.3697  158.3244 C.3     1  UNL1        0.1149
     19 C         142.2878  137.2633  154.7282 C.3     1  UNL1        0.0267
     20 C         143.5507  137.6557  155.4364 C.3     1  UNL1        0.1286
     21 N         144.7337  136.7337  155.4263 N.3     1  UNL1       -0.3150
     22 H         144.5050  135.8929  154.8960 H       1  UNL1        0.1192
     23 H         144.9730  136.4770  156.3840 H       1  UNL1        0.1192
     24 C         139.2611  139.9220  168.1651 C.3     1  UNL1        0.4187
     25 F         138.8924  140.0071  169.6167 F       1  UNL1       -0.1659
     26 F         138.0179  139.1270  167.8960 F       1  UNL1       -0.1659
     27 F         140.5043  140.7169  168.4342 F       1  UNL1       -0.1659
     28 N         137.8945  140.1233  163.1560 N.pl3   1  UNL1       -0.3290
     29 H         137.6328  139.3669  162.5828 H       1  UNL1        0.1471
     30 C         137.2413  141.4617  162.9762 C.3     1  UNL1        0.1145
     31 C         138.0521  142.7163  163.1128 C.ar    1  UNL1        0.0035
     32 C         138.0234  143.4918  164.3965 C.ar    1  UNL1       -0.0022
     33 C         138.8341  144.7464  164.5331 C.ar    1  UNL1        0.0060
     34 C         139.6736  145.2255  163.3860 C.ar    1  UNL1        0.0752
     35 C         139.7023  144.4500  162.1023 C.ar    1  UNL1        0.2898
     36 C         138.8915  143.1954  161.9657 C.ar    1  UNL1        0.0727
     37 N         140.5417  144.9291  160.9553 N.pl3   1  UNL1        0.0809
     38 O         142.0243  144.7014  160.9644 O.2     1  UNL1        0.0415
     39 O         139.8986  145.6359  159.7991 O.co2   1  UNL1       -0.5760
@<TRIPOS>UNITY_ATOM_ATTR
37 1
charge 1
39 1
charge -1
@<TRIPOS>BOND
     1    20    19    1
     2    20    21    1
     3    20    11    1
     4    11    12    2
     5    11    13   am
     6    13    14    1
     7    14    15    1
     8    15    16    1
     9    16     1    1
    10     1     2   ar
    11     2     3   ar
    12     3     4   ar
    13     4     5   ar
    14     5     6   ar
    15     6    24    1
    16    24    25    1
    17    24    26    1
    18    24    27    1
    19     6     7   ar
    20     7     8   ar
    21     8    28    1
    22    28    30    1
    23    30    31    1
    24    31    32   ar
    25    32    33   ar
    26    33    34   ar
    27    34    35   ar
    28    35    37    1
    29    37    38    2
    30    37    39    1
    31    35    36   ar
    32     8     9   ar
    33     9    10   ar
    34    16    17    1
    35    17    18    1
    36    18    13    1
    37    10     1   ar
    38     9     4   ar
    39    36    31   ar
    40    21    22    1
    41    21    23    1
    42    28    29    1
@<TRIPOS>MOLECULE
*****
 39 42 0 0 0
SMALL
GASTEIGER

@<TRIPOS>ATOM
      1 C         140.5155  139.2724  163.9369 C.ar    1  UNL1        0.0674
      2 C         139.5905  138.4024  163.1384 C.ar    1  UNL1        0.1133
      3 N         139.8959  138.1045  161.7004 N.ar    1  UNL1       -0.2425
      4 C         141.1263  138.6766  161.0608 C.ar    1  UNL1        0.0825
      5 C         141.4316  138.3786  159.6227 C.ar    1  UNL1        0.0230
      6 C         142.6620  138.9507  158.9832 C.ar    1  UNL1        0.0741
      7 C         143.5870  139.8207  159.7817 C.ar    1  UNL1        0.0183
      8 C         143.2816  140.1186  161.2198 C.ar    1  UNL1        0.0463
      9 C         142.0512  139.5465  161.8593 C.ar    1  UNL1        0.0320
     10 C         141.7458  139.8444  163.2973 C.ar    1  UNL1        0.0188
     11 C         139.2940  140.4640  169.6891 C.2     1  UNL1        0.2398
     12 O         138.0394  139.9312  170.3154 O.2     1  UNL1       -0.2734
     13 N         139.5994  140.1661  168.2511 N.am    1  UNL1       -0.2750
     14 C         140.8539  140.6989  167.6248 C.3     1  UNL1        0.1149
     15 C         141.1593  140.4010  166.1867 C.3     1  UNL1        0.1124
     16 N         140.2101  139.5703  165.3750 N.pl3   1  UNL1       -0.3028
     17 C         138.9556  139.0375  166.0012 C.3     1  UNL1        0.1124
     18 C         138.6502  139.3354  167.4393 C.3     1  UNL1        0.1149
     19 C         140.2266  142.7895  170.3765 C.3     1  UNL1        0.0267
     20 C         140.2432  141.2947  170.5009 C.3     1  UNL1        0.1286
     21 N         141.2089  140.6307  171.4370 N.3     1  UNL1       -0.3150
     22 H         141.7731  141.3409  171.9036 H       1  UNL1        0.1192
     23 H         141.8180  140.0051  170.9097 H       1  UNL1        0.1192
     24 C         142.9674  138.6528  157.5452 C.3     1  UNL1        0.4187
     25 F         143.2728  138.3548  156.1071 F       1  UNL1       -0.1659
     26 F         141.9993  137.5075  157.5768 F       1  UNL1       -0.1659
     27 F         143.9355  139.7981  157.5135 F       1  UNL1       -0.1659
     28 N         144.2065  140.9885  162.0182 N.pl3   1  UNL1       -0.3290
     29 H         144.7022  140.6107  162.7803 H       1  UNL1        0.1471
     30 C         144.3763  142.4341  161.6556 C.3     1  UNL1        0.1145
     31 C         143.4367  143.4623  162.2125 C.ar    1  UNL1        0.0035
     32 C         143.8022  144.2167  163.4564 C.ar    1  UNL1       -0.0022
     33 C         142.8627  145.2449  164.0133 C.ar    1  UNL1        0.0060
     34 C         141.5577  145.5187  163.3262 C.ar    1  UNL1        0.0752
     35 C         141.1922  144.7644  162.0823 C.ar    1  UNL1        0.2898
     36 C         142.1317  143.7361  161.5255 C.ar    1  UNL1        0.0727
     37 N         139.8872  145.0382  161.3953 N.pl3   1  UNL1        0.0809
     38 O         138.6246  145.1441  162.1982 O.2     1  UNL1        0.0415
     39 O         139.8448  145.2060  159.9053 O.co2   1  UNL1       -0.5760
@<TRIPOS>UNITY_ATOM_ATTR
37 1
charge 1
39 1
charge -1
@<TRIPOS>BOND
     1    20    19    1
     2    20    21    1
     3    20    11    1
     4    11    12    2
     5    11    13   am
     6    13    14    1
     7    14    15    1
     8    15    16    1
     9    16     1    1
    10     1     2   ar
    11     2     3   ar
    12     3     4   ar
    13     4     5   ar
    14     5     6   ar
    15     6    24    1
    16    24    25    1
    17    24    26    1
    18    24    27    1
    19     6     7   ar
    20     7     8   ar
    21     8    28    1
    22    28    30    1
    23    30    31    1
    24    31    32   ar
    25    32    33   ar
    26    33    34   ar
    27    34    35   ar
    28    35    37    1
    29    37    38    2
    30    37    39    1
    31    35    36   ar
    32     8     9   ar
    33     9    10   ar
    34    16    17    1
    35    17    18    1
    36    18    13    1
    37    10     1   ar
    38     9     4   ar
    39    36    31   ar
    40    21    22    1
    41    21    23    1
    42    28    29    1
@<TRIPOS>MOLECULE
*****
 39 42 0 0 0
SMALL
GASTEIGER

@<TRIPOS>ATOM
      1 C         142.6553  140.1899  162.8909 C.ar    1  UNL1        0.0674
      2 C         143.7702  141.1788  163.0608 C.ar    1  UNL1        0.1133
      3 N         143.9586  141.8783  164.3742 N.ar    1  UNL1       -0.2425
      4 C         143.0320  141.5889  165.5178 C.ar    1  UNL1        0.0825
      5 C         143.2205  142.2885  166.8312 C.ar    1  UNL1        0.0230
      6 C         142.2940  141.9991  167.9748 C.ar    1  UNL1        0.0741
      7 C         141.1790  141.0101  167.8049 C.ar    1  UNL1        0.0183
      8 C         140.9906  140.3106  166.4915 C.ar    1  UNL1        0.0463
      9 C         141.9171  140.6000  165.3479 C.ar    1  UNL1        0.0320
     10 C         141.7287  139.9005  164.0345 C.ar    1  UNL1        0.0188
     11 C         141.9016  137.3916  157.6371 C.2     1  UNL1        0.2398
     12 O         142.8057  136.2572  157.2551 O.2     1  UNL1       -0.2734
     13 N         142.0900  138.0912  158.9505 N.am    1  UNL1       -0.2750
     14 C         141.1860  139.2255  159.3326 C.3     1  UNL1        0.1149
     15 C         141.3744  139.9251  160.6460 C.3     1  UNL1        0.1124
     16 N         142.4668  139.4903  161.5774 N.pl3   1  UNL1       -0.3028
     17 C         143.3709  138.3559  161.1954 C.3     1  UNL1        0.1124
     18 C         143.1825  137.6564  159.8820 C.3     1  UNL1        0.1149
     19 C         141.0970  138.8302  155.6289 C.3     1  UNL1        0.0267
     20 C         140.8092  137.8264  156.7058 C.3     1  UNL1        0.1286
     21 N         139.4289  137.2573  156.8512 N.3     1  UNL1       -0.3150
     22 H         138.8183  137.6609  156.1408 H       1  UNL1        0.1192
     23 H         139.0655  137.4795  157.7780 H       1  UNL1        0.1192
     24 C         142.4823  142.6986  169.2882 C.3     1  UNL1        0.4187
     25 F         142.6708  143.3981  170.6017 F       1  UNL1       -0.1659
     26 F         143.9601  142.4553  169.2059 F       1  UNL1       -0.1659
     27 F         141.0045  142.9419  169.3706 F       1  UNL1       -0.1659
     28 N         139.8757  139.3216  166.3216 N.pl3   1  UNL1       -0.3290
     29 H         140.0469  138.3603  166.4477 H       1  UNL1        0.1471
     30 C         138.4999  139.7972  165.9597 C.3     1  UNL1        0.1145
     31 C         138.2936  140.6288  164.7284 C.ar    1  UNL1        0.0035
     32 C         137.9089  139.9721  163.4358 C.ar    1  UNL1       -0.0022
     33 C         137.7026  140.8035  162.2045 C.ar    1  UNL1        0.0060
     34 C         137.8809  142.2917  162.2658 C.ar    1  UNL1        0.0752
     35 C         138.2656  142.9483  163.5584 C.ar    1  UNL1        0.2898
     36 C         138.4719  142.1168  164.7897 C.ar    1  UNL1        0.0727
     37 N         138.4439  144.4364  163.6197 N.pl3   1  UNL1        0.0809
     38 O         138.7557  145.1011  164.9277 O.2     1  UNL1        0.0415
     39 O         138.3105  145.2597  162.3730 O.co2   1  UNL1       -0.5760
@<TRIPOS>UNITY_ATOM_ATTR
37 1
charge 1
39 1
charge -1
@<TRIPOS>BOND
     1    20    19    1
     2    20    21    1
     3    20    11    1
     4    11    12    2
     5    11    13   am
     6    13    14    1
     7    14    15    1
     8    15    16    1
     9    16     1    1
    10     1     2   ar
    11     2     3   ar
    12     3     4   ar
    13     4     5   ar
    14     5     6   ar
    15     6    24    1
    16    24    25    1
    17    24    26    1
    18    24    27    1
    19     6     7   ar
    20     7     8   ar
    21     8    28    1
    22    28    30    1
    23    30    31    1
    24    31    32   ar
    25    32    33   ar
    26    33    34   ar
    27    34    35   ar
    28    35    37    1
    29    37    38    2
    30    37    39    1
    31    35    36   ar
    32     8     9   ar
    33     9    10   ar
    34    16    17    1
    35    17    18    1
    36    18    13    1
    37    10     1   ar
    38     9     4   ar
    39    36    31   ar
    40    21    22    1
    41    21    23    1
    42    28    29    1
