@<TRIPOS>MOLECULE
*****
 29 32 0 0 0
SMALL
GASTEIGER

@<TRIPOS>ATOM
      1 C         139.7191  143.3708  163.7816 C.2     1  UNL1        0.1157
      2 N         140.3766  143.4468  165.1277 N.2     1  UNL1       -0.1790
      3 N         140.7498  142.0539  165.5406 N.pl3   1  UNL1       -0.2061
      4 C         141.4231  141.5177  166.7691 C.ar    1  UNL1        0.1026
      5 C         141.8498  142.4546  167.8600 C.ar    1  UNL1        0.0151
      6 C         142.5231  141.9183  169.0884 C.ar    1  UNL1       -0.0204
      7 C         142.9499  142.8552  170.1793 C.3     1  UNL1        0.0311
      8 C         142.7697  140.4451  169.2259 C.ar    1  UNL1       -0.0011
      9 C         142.3430  139.5082  168.1350 C.ar    1  UNL1        0.0379
     10 C         141.6697  140.0445  166.9066 C.ar    1  UNL1        0.1535
     11 O         141.2429  139.1076  165.8156 O.3     1  UNL1       -0.4723
     12 C         140.5696  139.6439  164.5872 C.3     1  UNL1        0.2277
     13 C         140.3231  141.1170  164.4497 C.3     1  UNL1        0.1488
     14 C         139.6861  141.9309  163.3626 C.3     1  UNL1        0.0806
     15 C         139.5123  140.6031  162.6867 C.ar    1  UNL1       -0.0157
     16 C         138.1923  139.8940  162.7550 C.ar    1  UNL1       -0.0039
     17 C         138.0184  138.5661  162.0791 C.ar    1  UNL1       -0.0003
     18 C         139.1645  137.9475  161.3350 C.ar    1  UNL1       -0.0000
     19 C         140.4845  138.6567  161.2667 C.ar    1  UNL1       -0.0003
     20 C         140.6584  139.9845  161.9426 C.ar    1  UNL1       -0.0039
     21 C         140.1332  145.5503  162.4293 C.3     1  UNL1        0.0786
     22 C         139.1880  144.5310  162.9930 C.2     1  UNL1        0.1887
     23 O         137.7117  144.6719  162.7680 O.2     1  UNL1       -0.2900
     24 C         139.0127  142.4672  162.1341 C.3     1  UNL1        0.0130
     25 C         139.6824  142.3441  160.7975 C.3     1  UNL1        0.0181
     26 C         139.0371  142.9332  159.5783 C.3     1  UNL1        0.0722
     27 N         138.3340  142.0424  158.5973 N.3     1  UNL1       -0.2703
     28 C         138.1177  140.5938  158.9209 C.3     1  UNL1        0.0897
     29 C         137.8473  142.6002  157.2927 C.3     1  UNL1        0.0897
@<TRIPOS>BOND
     1    21    22    1
     2    22    23    2
     3    22     1    1
     4     1     2    2
     5     2     3    1
     6     3     4    1
     7     4     5   ar
     8     5     6   ar
     9     6     7    1
    10     6     8   ar
    11     8     9   ar
    12     9    10   ar
    13    10    11    1
    14    11    12    1
    15    13    12    1
    16    13    14    1
    17    14    24    1
    18    24    25    1
    19    25    26    1
    20    26    27    1
    21    27    28    1
    22    27    29    1
    23    14    15    1
    24    15    16   ar
    25    16    17   ar
    26    17    18   ar
    27    18    19   ar
    28    19    20   ar
    29    14     1    1
    30    20    15   ar
    31    13     3    1
    32    10     4   ar
@<TRIPOS>MOLECULE
*****
 29 32 0 0 0
SMALL
GASTEIGER

@<TRIPOS>ATOM
      1 C         140.8286  138.7742  164.0349 C.2     1  UNL1        0.1157
      2 N         140.1079  138.9069  165.3438 N.2     1  UNL1       -0.1790
      3 N         140.7859  139.9829  166.1391 N.pl3   1  UNL1       -0.2061
      4 C         140.5127  140.5467  167.5021 C.ar    1  UNL1        0.1026
      5 C         139.3730  140.0145  168.3192 C.ar    1  UNL1        0.0151
      6 C         139.0998  140.5783  169.6821 C.ar    1  UNL1       -0.0204
      7 C         137.9602  140.0460  170.4994 C.3     1  UNL1        0.0311
      8 C         139.9663  141.6744  170.2278 C.ar    1  UNL1       -0.0011
      9 C         141.1060  142.2067  169.4106 C.ar    1  UNL1        0.0379
     10 C         141.3791  141.6428  168.0477 C.ar    1  UNL1        0.1535
     11 O         142.5188  142.1751  167.2304 O.3     1  UNL1       -0.4723
     12 C         142.7920  141.6113  165.8676 C.3     1  UNL1        0.2277
     13 C         141.9255  140.5152  165.3219 C.3     1  UNL1        0.1488
     14 C         141.9519  139.7682  164.0214 C.3     1  UNL1        0.0806
     15 C         143.1324  140.6442  163.7230 C.ar    1  UNL1       -0.0157
     16 C         144.4800  140.3045  164.2872 C.ar    1  UNL1       -0.0039
     17 C         145.6606  141.1806  163.9888 C.ar    1  UNL1       -0.0003
     18 C         145.4934  142.3963  163.1262 C.ar    1  UNL1       -0.0000
     19 C         144.1457  142.7360  162.5620 C.ar    1  UNL1       -0.0003
     20 C         142.9651  141.8599  162.8604 C.ar    1  UNL1       -0.0039
     21 C         139.5572  138.2381  161.8335 C.3     1  UNL1        0.0786
     22 C         140.4860  137.8158  162.9330 C.2     1  UNL1        0.1887
     23 O         141.0722  136.4351  162.9307 O.2     1  UNL1       -0.2900
     24 C         142.2251  139.2043  162.6585 C.3     1  UNL1        0.0130
     25 C         143.4889  138.4377  162.4036 C.3     1  UNL1        0.0181
     26 C         143.9449  138.1901  160.9962 C.3     1  UNL1        0.0722
     27 N         143.2832  138.9064  159.8564 N.3     1  UNL1       -0.2703
     28 C         142.1892  138.2336  159.0816 C.3     1  UNL1        0.0897
     29 C         143.7156  140.2957  159.4914 C.3     1  UNL1        0.0897
@<TRIPOS>BOND
     1    21    22    1
     2    22    23    2
     3    22     1    1
     4     1     2    2
     5     2     3    1
     6     3     4    1
     7     4     5   ar
     8     5     6   ar
     9     6     7    1
    10     6     8   ar
    11     8     9   ar
    12     9    10   ar
    13    10    11    1
    14    11    12    1
    15    13    12    1
    16    13    14    1
    17    14    24    1
    18    24    25    1
    19    25    26    1
    20    26    27    1
    21    27    28    1
    22    27    29    1
    23    14    15    1
    24    15    16   ar
    25    16    17   ar
    26    17    18   ar
    27    18    19   ar
    28    19    20   ar
    29    14     1    1
    30    20    15   ar
    31    13     3    1
    32    10     4   ar
@<TRIPOS>MOLECULE
*****
 29 32 0 0 0
SMALL
GASTEIGER

@<TRIPOS>ATOM
      1 C         140.1372  143.4938  162.8715 C.2     1  UNL1        0.1157
      2 N         140.2845  143.7168  164.3475 N.2     1  UNL1       -0.1790
      3 N         140.0527  142.4064  165.0396 N.pl3   1  UNL1       -0.2061
      4 C         140.0687  142.0202  166.4890 C.ar    1  UNL1        0.1026
      5 C         140.3591  143.0531  167.5372 C.ar    1  UNL1        0.0151
      6 C         140.3751  142.6669  168.9865 C.ar    1  UNL1       -0.0204
      7 C         140.6656  143.6998  170.0348 C.3     1  UNL1        0.0311
      8 C         140.1006  141.2478  169.3876 C.ar    1  UNL1       -0.0011
      9 C         139.8101  140.2149  168.3394 C.ar    1  UNL1        0.0379
     10 C         139.7942  140.6011  166.8901 C.ar    1  UNL1        0.1535
     11 O         139.5037  139.5682  165.8418 O.3     1  UNL1       -0.4723
     12 C         139.4878  139.9544  164.3925 C.3     1  UNL1        0.2277
     13 C         139.7623  141.3735  163.9914 C.3     1  UNL1        0.1488
     14 C         139.8145  142.0456  162.6514 C.3     1  UNL1        0.0806
     15 C         139.4884  140.6781  162.1283 C.ar    1  UNL1       -0.0157
     16 C         140.5775  139.8071  161.5760 C.ar    1  UNL1       -0.0039
     17 C         140.2515  138.4395  161.0528 C.ar    1  UNL1       -0.0003
     18 C         138.8363  137.9430  161.0821 C.ar    1  UNL1       -0.0000
     19 C         137.7472  138.8141  161.6344 C.ar    1  UNL1       -0.0003
     20 C         138.0732  140.1816  162.1576 C.ar    1  UNL1       -0.0039
     21 C         141.5630  144.6312  161.0211 C.3     1  UNL1        0.0786
     22 C         140.2865  144.5362  161.8031 C.2     1  UNL1        0.1887
     23 O         139.1592  145.4834  161.5168 O.2     1  UNL1       -0.2900
     24 C         139.7985  142.4318  161.2020 C.3     1  UNL1        0.0130
     25 C         138.5169  142.3749  160.4248 C.3     1  UNL1        0.0181
     26 C         138.5174  142.6735  158.9548 C.3     1  UNL1        0.0722
     27 N         138.1202  141.6108  157.9735 N.3     1  UNL1       -0.2703
     28 C         137.2196  141.9509  156.8232 C.3     1  UNL1        0.0897
     29 C         138.6238  140.2079  158.1425 C.3     1  UNL1        0.0897
@<TRIPOS>BOND
     1    21    22    1
     2    22    23    2
     3    22     1    1
     4     1     2    2
     5     2     3    1
     6     3     4    1
     7     4     5   ar
     8     5     6   ar
     9     6     7    1
    10     6     8   ar
    11     8     9   ar
    12     9    10   ar
    13    10    11    1
    14    11    12    1
    15    13    12    1
    16    13    14    1
    17    14    24    1
    18    24    25    1
    19    25    26    1
    20    26    27    1
    21    27    28    1
    22    27    29    1
    23    14    15    1
    24    15    16   ar
    25    16    17   ar
    26    17    18   ar
    27    18    19   ar
    28    19    20   ar
    29    14     1    1
    30    20    15   ar
    31    13     3    1
    32    10     4   ar
@<TRIPOS>MOLECULE
*****
 29 32 0 0 0
SMALL
GASTEIGER

@<TRIPOS>ATOM
      1 C         143.1674  140.7544  163.6245 C.2     1  UNL1        0.1157
      2 N         143.3170  140.1155  164.9734 N.2     1  UNL1       -0.1790
      3 N         142.1765  140.5746  165.8327 N.pl3   1  UNL1       -0.2061
      4 C         141.8057  140.2716  167.2543 C.ar    1  UNL1        0.1026
      5 C         142.6601  139.3490  168.0719 C.ar    1  UNL1        0.0151
      6 C         142.2892  139.0460  169.4934 C.ar    1  UNL1       -0.0204
      7 C         143.1437  138.1233  170.3112 C.3     1  UNL1        0.0311
      8 C         141.0639  139.6657  170.0972 C.ar    1  UNL1       -0.0011
      9 C         140.2095  140.5884  169.2795 C.ar    1  UNL1        0.0379
     10 C         140.5803  140.8913  167.8581 C.ar    1  UNL1        0.1535
     11 O         139.7259  141.8140  167.0403 O.3     1  UNL1       -0.4723
     12 C         140.0968  142.1169  165.6188 C.3     1  UNL1        0.2277
     13 C         141.3221  141.4972  165.0150 C.3     1  UNL1        0.1488
     14 C         141.9345  141.6084  163.6503 C.3     1  UNL1        0.0806
     15 C         140.7791  142.5256  163.3788 C.ar    1  UNL1       -0.0157
     16 C         140.8210  143.9465  163.8578 C.ar    1  UNL1       -0.0039
     17 C         139.6656  144.8638  163.5864 C.ar    1  UNL1       -0.0003
     18 C         138.4683  144.3603  162.8360 C.ar    1  UNL1       -0.0000
     19 C         138.4265  142.9394  162.3570 C.ar    1  UNL1       -0.0003
     20 C         139.5819  142.0221  162.6284 C.ar    1  UNL1       -0.0039
     21 C         143.7435  139.5907  161.3742 C.3     1  UNL1        0.0786
     22 C         144.0890  140.5715  162.4552 C.2     1  UNL1        0.1887
     23 O         145.3561  141.3694  162.3669 O.2     1  UNL1       -0.2900
     24 C         142.3054  141.9113  162.2287 C.3     1  UNL1        0.0130
     25 C         142.6511  143.3144  161.8265 C.3     1  UNL1        0.0181
     26 C         142.5113  143.7403  160.3951 C.3     1  UNL1        0.0722
     27 N         141.1513  144.0067  159.8212 N.3     1  UNL1       -0.2703
     28 C         140.4104  142.9138  159.1093 C.3     1  UNL1        0.0897
     29 C         140.5321  145.3659  159.9592 C.3     1  UNL1        0.0897
@<TRIPOS>BOND
     1    21    22    1
     2    22    23    2
     3    22     1    1
     4     1     2    2
     5     2     3    1
     6     3     4    1
     7     4     5   ar
     8     5     6   ar
     9     6     7    1
    10     6     8   ar
    11     8     9   ar
    12     9    10   ar
    13    10    11    1
    14    11    12    1
    15    13    12    1
    16    13    14    1
    17    14    24    1
    18    24    25    1
    19    25    26    1
    20    26    27    1
    21    27    28    1
    22    27    29    1
    23    14    15    1
    24    15    16   ar
    25    16    17   ar
    26    17    18   ar
    27    18    19   ar
    28    19    20   ar
    29    14     1    1
    30    20    15   ar
    31    13     3    1
    32    10     4   ar
@<TRIPOS>MOLECULE
*****
 29 32 0 0 0
SMALL
GASTEIGER

@<TRIPOS>ATOM
      1 C         140.0850  143.5683  163.0174 C.2     1  UNL1        0.1157
      2 N         140.2282  143.7477  164.4998 N.2     1  UNL1       -0.1790
      3 N         140.0291  142.4107  165.1498 N.pl3   1  UNL1       -0.2061
      4 C         140.0558  141.9790  166.5862 C.ar    1  UNL1        0.1026
      5 C         140.3222  142.9847  167.6667 C.ar    1  UNL1        0.0151
      6 C         140.3489  142.5531  169.1029 C.ar    1  UNL1       -0.0204
      7 C         140.6153  143.5588  170.1835 C.3     1  UNL1        0.0311
      8 C         140.1094  141.1157  169.4587 C.ar    1  UNL1       -0.0011
      9 C         139.8431  140.1100  168.3782 C.ar    1  UNL1        0.0379
     10 C         139.8163  140.5416  166.9419 C.ar    1  UNL1        0.1535
     11 O         139.5500  139.5359  165.8613 O.3     1  UNL1       -0.4723
     12 C         139.5232  139.9676  164.4250 C.3     1  UNL1        0.2277
     13 C         139.7628  141.4049  164.0693 C.3     1  UNL1        0.1488
     14 C         139.7973  142.1204  162.7514 C.3     1  UNL1        0.0806
     15 C         139.5040  140.7628  162.1851 C.ar    1  UNL1       -0.0157
     16 C         138.1059  140.2207  162.2221 C.ar    1  UNL1       -0.0039
     17 C         137.8126  138.8630  161.6558 C.ar    1  UNL1       -0.0003
     18 C         138.9174  138.0474  161.0524 C.ar    1  UNL1       -0.0000
     19 C         140.3156  138.5894  161.0153 C.ar    1  UNL1       -0.0003
     20 C         140.6089  139.9472  161.5816 C.ar    1  UNL1       -0.0039
     21 C         141.4722  144.7834  161.1873 C.3     1  UNL1        0.0786
     22 C         140.2078  144.6475  161.9828 C.2     1  UNL1        0.1887
     23 O         139.0662  145.5906  161.7436 O.2     1  UNL1       -0.2900
     24 C         139.7705  142.5521  161.3150 C.3     1  UNL1        0.0130
     25 C         138.4931  142.4754  160.5326 C.3     1  UNL1        0.0181
     26 C         138.5310  142.4748  159.0331 C.3     1  UNL1        0.0722
     27 N         139.3173  141.4263  158.3032 N.3     1  UNL1       -0.2703
     28 C         138.6894  140.1007  157.9896 C.3     1  UNL1        0.0897
     29 C         140.7314  141.7036  157.8868 C.3     1  UNL1        0.0897
@<TRIPOS>BOND
     1    21    22    1
     2    22    23    2
     3    22     1    1
     4     1     2    2
     5     2     3    1
     6     3     4    1
     7     4     5   ar
     8     5     6   ar
     9     6     7    1
    10     6     8   ar
    11     8     9   ar
    12     9    10   ar
    13    10    11    1
    14    11    12    1
    15    13    12    1
    16    13    14    1
    17    14    24    1
    18    24    25    1
    19    25    26    1
    20    26    27    1
    21    27    28    1
    22    27    29    1
    23    14    15    1
    24    15    16   ar
    25    16    17   ar
    26    17    18   ar
    27    18    19   ar
    28    19    20   ar
    29    14     1    1
    30    20    15   ar
    31    13     3    1
    32    10     4   ar
@<TRIPOS>MOLECULE
*****
 29 32 0 0 0
SMALL
GASTEIGER

@<TRIPOS>ATOM
      1 C         143.7808  141.7016  164.1438 C.2     1  UNL1        0.1157
      2 N         143.7856  142.2025  165.5577 N.2     1  UNL1       -0.1790
      3 N         142.6977  141.4902  166.3054 N.pl3   1  UNL1       -0.2061
      4 C         142.2362  141.5770  167.7301 C.ar    1  UNL1        0.1026
      5 C         142.9134  142.5180  168.6818 C.ar    1  UNL1        0.0151
      6 C         142.4519  142.6048  170.1064 C.ar    1  UNL1       -0.0204
      7 C         143.1291  143.5459  171.0581 C.3     1  UNL1        0.0311
      8 C         141.3133  141.7505  170.5792 C.ar    1  UNL1       -0.0011
      9 C         140.6361  140.8094  169.6275 C.ar    1  UNL1        0.0379
     10 C         141.0976  140.7227  168.2030 C.ar    1  UNL1        0.1535
     11 O         140.4204  139.7816  167.2512 O.3     1  UNL1       -0.4723
     12 C         140.8819  139.6948  165.8266 C.3     1  UNL1        0.2277
     13 C         142.0205  140.5491  165.3537 C.3     1  UNL1        0.1488
     14 C         142.6899  140.6798  164.0177 C.3     1  UNL1        0.0806
     15 C         141.6955  139.6398  163.5938 C.ar    1  UNL1       -0.0157
     16 C         140.4352  140.0496  162.8912 C.ar    1  UNL1       -0.0039
     17 C         139.4408  139.0096  162.4673 C.ar    1  UNL1       -0.0003
     18 C         139.7067  137.5599  162.7460 C.ar    1  UNL1       -0.0000
     19 C         140.9670  137.1502  163.4486 C.ar    1  UNL1       -0.0003
     20 C         141.9614  138.1901  163.8726 C.ar    1  UNL1       -0.0039
     21 C         144.2460  143.1624  162.0462 C.3     1  UNL1        0.0786
     22 C         144.7046  142.1448  163.0482 C.2     1  UNL1        0.1887
     23 O         146.0871  141.5703  162.9548 O.2     1  UNL1       -0.2900
     24 C         143.1514  140.5930  162.5931 C.3     1  UNL1        0.0130
     25 C         143.7616  139.3231  162.0784 C.3     1  UNL1        0.0181
     26 C         144.1847  139.2224  160.6429 C.3     1  UNL1        0.0722
     27 N         143.1505  139.1823  159.5571 N.3     1  UNL1       -0.2703
     28 C         141.8971  138.3799  159.7446 C.3     1  UNL1        0.0897
     29 C         143.3697  139.9446  158.2840 C.3     1  UNL1        0.0897
@<TRIPOS>BOND
     1    21    22    1
     2    22    23    2
     3    22     1    1
     4     1     2    2
     5     2     3    1
     6     3     4    1
     7     4     5   ar
     8     5     6   ar
     9     6     7    1
    10     6     8   ar
    11     8     9   ar
    12     9    10   ar
    13    10    11    1
    14    11    12    1
    15    13    12    1
    16    13    14    1
    17    14    24    1
    18    24    25    1
    19    25    26    1
    20    26    27    1
    21    27    28    1
    22    27    29    1
    23    14    15    1
    24    15    16   ar
    25    16    17   ar
    26    17    18   ar
    27    18    19   ar
    28    19    20   ar
    29    14     1    1
    30    20    15   ar
    31    13     3    1
    32    10     4   ar
@<TRIPOS>MOLECULE
*****
 29 32 0 0 0
SMALL
GASTEIGER

@<TRIPOS>ATOM
      1 C         139.0297  141.6894  163.9947 C.2     1  UNL1        0.1157
      2 N         139.0569  141.4176  165.4697 N.2     1  UNL1       -0.1790
      3 N         140.3644  140.7586  165.7955 N.pl3   1  UNL1       -0.2061
      4 C         140.9448  140.2644  167.0874 C.ar    1  UNL1        0.1026
      5 C         140.1639  140.4000  168.3609 C.ar    1  UNL1        0.0151
      6 C         140.7443  139.9058  169.6527 C.ar    1  UNL1       -0.0204
      7 C         139.9634  140.0414  170.9263 C.3     1  UNL1        0.0311
      8 C         142.1056  139.2760  169.6711 C.ar    1  UNL1       -0.0011
      9 C         142.8864  139.1404  168.3976 C.ar    1  UNL1        0.0379
     10 C         142.3060  139.6346  167.1058 C.ar    1  UNL1        0.1535
     11 O         143.0869  139.4990  165.8322 O.3     1  UNL1       -0.4723
     12 C         142.5065  139.9932  164.5403 C.3     1  UNL1        0.2277
     13 C         141.1452  140.6230  164.5220 C.3     1  UNL1        0.1488
     14 C         140.3204  141.1983  163.4091 C.3     1  UNL1        0.0806
     15 C         141.4897  140.8105  162.5533 C.ar    1  UNL1       -0.0157
     16 C         142.7112  141.6801  162.5138 C.ar    1  UNL1       -0.0039
     17 C         143.8806  141.2923  161.6580 C.ar    1  UNL1       -0.0003
     18 C         143.8283  140.0349  160.8417 C.ar    1  UNL1       -0.0000
     19 C         142.6068  139.1653  160.8812 C.ar    1  UNL1       -0.0003
     20 C         141.4374  139.5531  161.7370 C.ar    1  UNL1       -0.0039
     21 C         137.6507  143.8077  163.3940 C.3     1  UNL1        0.0786
     22 C         137.9087  142.3383  163.2383 C.2     1  UNL1        0.1887
     23 O         137.0456  141.5178  162.3262 O.2     1  UNL1       -0.2900
     24 C         139.7400  141.6925  162.1171 C.3     1  UNL1        0.0130
     25 C         140.4446  142.7644  161.3398 C.3     1  UNL1        0.0181
     26 C         139.6960  143.5613  160.3130 C.3     1  UNL1        0.0722
     27 N         139.9893  145.0219  160.1370 N.3     1  UNL1       -0.2703
     28 C         139.9195  145.9480  161.3148 C.3     1  UNL1        0.0897
     29 C         140.3523  145.5561  158.7832 C.3     1  UNL1        0.0897
@<TRIPOS>BOND
     1    21    22    1
     2    22    23    2
     3    22     1    1
     4     1     2    2
     5     2     3    1
     6     3     4    1
     7     4     5   ar
     8     5     6   ar
     9     6     7    1
    10     6     8   ar
    11     8     9   ar
    12     9    10   ar
    13    10    11    1
    14    11    12    1
    15    13    12    1
    16    13    14    1
    17    14    24    1
    18    24    25    1
    19    25    26    1
    20    26    27    1
    21    27    28    1
    22    27    29    1
    23    14    15    1
    24    15    16   ar
    25    16    17   ar
    26    17    18   ar
    27    18    19   ar
    28    19    20   ar
    29    14     1    1
    30    20    15   ar
    31    13     3    1
    32    10     4   ar
@<TRIPOS>MOLECULE
*****
 29 32 0 0 0
SMALL
GASTEIGER

@<TRIPOS>ATOM
      1 C         142.9288  143.0919  163.5194 C.2     1  UNL1        0.1157
      2 N         142.8988  143.1895  165.0159 N.2     1  UNL1       -0.1790
      3 N         142.8006  141.7987  165.5691 N.pl3   1  UNL1       -0.2061
      4 C         142.7351  141.2801  166.9752 C.ar    1  UNL1        0.1026
      5 C         142.7657  142.2372  168.1297 C.ar    1  UNL1        0.0151
      6 C         142.7002  141.7187  169.5356 C.ar    1  UNL1       -0.0204
      7 C         142.7309  142.6758  170.6903 C.3     1  UNL1        0.0311
      8 C         142.6041  140.2430  169.7870 C.ar    1  UNL1       -0.0011
      9 C         142.5735  139.2859  168.6325 C.ar    1  UNL1        0.0379
     10 C         142.6390  139.8045  167.2266 C.ar    1  UNL1        0.1535
     11 O         142.6083  138.8474  166.0719 O.3     1  UNL1       -0.4723
     12 C         142.6738  139.3660  164.6660 C.3     1  UNL1        0.2277
     13 C         142.7699  140.8416  164.4146 C.3     1  UNL1        0.1488
     14 C         142.8492  141.6409  163.1477 C.3     1  UNL1        0.0806
     15 C         142.7833  140.2983  162.4822 C.ar    1  UNL1       -0.0157
     16 C         144.0199  139.4574  162.3657 C.ar    1  UNL1       -0.0039
     17 C         143.9541  138.1147  161.7001 C.ar    1  UNL1       -0.0003
     18 C         142.6515  137.6129  161.1510 C.ar    1  UNL1       -0.0000
     19 C         141.4148  138.4538  161.2674 C.ar    1  UNL1       -0.0003
     20 C         141.4807  139.7965  161.9330 C.ar    1  UNL1       -0.0039
     21 C         141.7998  144.7099  161.8289 C.3     1  UNL1        0.0786
     22 C         143.0221  144.2434  162.5624 C.2     1  UNL1        0.1887
     23 O         144.3378  144.9282  162.3391 O.2     1  UNL1       -0.2900
     24 C         142.9147  142.1594  161.7417 C.3     1  UNL1        0.0130
     25 C         144.1416  141.9235  160.9117 C.3     1  UNL1        0.0181
     26 C         144.1758  142.3699  159.4801 C.3     1  UNL1        0.0722
     27 N         144.3058  141.3568  158.3814 N.3     1  UNL1       -0.2703
     28 C         145.1940  141.6358  157.2053 C.3     1  UNL1        0.0897
     29 C         143.5476  140.0649  158.4590 C.3     1  UNL1        0.0897
@<TRIPOS>BOND
     1    21    22    1
     2    22    23    2
     3    22     1    1
     4     1     2    2
     5     2     3    1
     6     3     4    1
     7     4     5   ar
     8     5     6   ar
     9     6     7    1
    10     6     8   ar
    11     8     9   ar
    12     9    10   ar
    13    10    11    1
    14    11    12    1
    15    13    12    1
    16    13    14    1
    17    14    24    1
    18    24    25    1
    19    25    26    1
    20    26    27    1
    21    27    28    1
    22    27    29    1
    23    14    15    1
    24    15    16   ar
    25    16    17   ar
    26    17    18   ar
    27    18    19   ar
    28    19    20   ar
    29    14     1    1
    30    20    15   ar
    31    13     3    1
    32    10     4   ar
@<TRIPOS>MOLECULE
*****
 29 32 0 0 0
SMALL
GASTEIGER

@<TRIPOS>ATOM
      1 C         141.6309  143.2707  163.3962 C.2     1  UNL1        0.1157
      2 N         142.1600  143.3198  164.7990 N.2     1  UNL1       -0.1790
      3 N         141.9267  141.9791  165.4296 N.pl3   1  UNL1       -0.2061
      4 C         142.2403  141.4441  166.7955 C.ar    1  UNL1        0.1026
      5 C         142.9137  142.3219  167.8083 C.ar    1  UNL1        0.0151
      6 C         143.2273  141.7869  169.1741 C.ar    1  UNL1       -0.0204
      7 C         143.9007  142.6648  170.1871 C.3     1  UNL1        0.0311
      8 C         142.8676  140.3741  169.5270 C.ar    1  UNL1       -0.0011
      9 C         142.1943  139.4963  168.5141 C.ar    1  UNL1        0.0379
     10 C         141.8807  140.0313  167.1484 C.ar    1  UNL1        0.1535
     11 O         141.2073  139.1534  166.1354 O.3     1  UNL1       -0.4723
     12 C         140.8937  139.6884  164.7696 C.3     1  UNL1        0.2277
     13 C         141.2533  141.1012  164.4167 C.3     1  UNL1        0.1488
     14 C         141.0706  141.8995  163.1600 C.3     1  UNL1        0.0806
     15 C         140.4446  140.6401  162.6383 C.ar    1  UNL1       -0.0157
     16 C         141.2311  139.7253  161.7469 C.ar    1  UNL1       -0.0039
     17 C         140.6051  138.4659  161.2251 C.ar    1  UNL1       -0.0003
     18 C         139.1927  138.1214  161.5947 C.ar    1  UNL1       -0.0000
     19 C         138.4063  139.0363  162.4860 C.ar    1  UNL1       -0.0003
     20 C         139.0322  140.2957  163.0078 C.ar    1  UNL1       -0.0039
     21 C         140.6707  145.5192  162.5175 C.3     1  UNL1        0.0786
     22 C         141.6575  144.3953  162.4039 C.2     1  UNL1        0.1887
     23 O         142.6710  144.3959  161.2981 O.2     1  UNL1       -0.2900
     24 C         140.7569  142.4345  161.7942 C.3     1  UNL1        0.0130
     25 C         139.3340  142.5039  161.3244 C.3     1  UNL1        0.0181
     26 C         139.0311  142.5687  159.8568 C.3     1  UNL1        0.0722
     27 N         139.1008  141.3251  159.0209 N.3     1  UNL1       -0.2703
     28 C         137.9353  140.3818  158.9812 C.3     1  UNL1        0.0897
     29 C         140.3362  141.0248  158.2249 C.3     1  UNL1        0.0897
@<TRIPOS>BOND
     1    21    22    1
     2    22    23    2
     3    22     1    1
     4     1     2    2
     5     2     3    1
     6     3     4    1
     7     4     5   ar
     8     5     6   ar
     9     6     7    1
    10     6     8   ar
    11     8     9   ar
    12     9    10   ar
    13    10    11    1
    14    11    12    1
    15    13    12    1
    16    13    14    1
    17    14    24    1
    18    24    25    1
    19    25    26    1
    20    26    27    1
    21    27    28    1
    22    27    29    1
    23    14    15    1
    24    15    16   ar
    25    16    17   ar
    26    17    18   ar
    27    18    19   ar
    28    19    20   ar
    29    14     1    1
    30    20    15   ar
    31    13     3    1
    32    10     4   ar
