@<TRIPOS>MOLECULE
*****
 37 39 0 0 0
SMALL
GASTEIGER

@<TRIPOS>ATOM
      1 N         142.7348  135.8888  157.3547 N.am    1  UNL1       -0.2531
      2 C         143.3197  137.1309  156.7506 C.2     1  UNL1        0.3136
      3 O         144.3995  137.0244  155.7147 O.2     1  UNL1       -0.2518
      4 N         142.8250  138.4796  157.1822 N.am    1  UNL1       -0.2262
      5 C         143.4099  139.7217  156.5781 C.3     1  UNL1        0.1231
      6 H         142.0261  135.9587  158.0345 H       1  UNL1        0.1578
      7 C         143.3221  132.6369  155.1569 C.ar    1  UNL1        0.0588
      8 C         142.8274  133.9855  155.5886 C.ar    1  UNL1        0.0495
      9 C         143.2296  134.5401  156.9230 C.ar    1  UNL1        0.1366
     10 N         144.1266  133.7461  157.8257 N.ar    1  UNL1       -0.2282
     11 C         144.6214  132.3975  157.3940 C.ar    1  UNL1        0.1118
     12 C         144.2191  131.8429  156.0596 C.ar    1  UNL1        0.1007
     13 N         142.9199  132.0823  153.8225 N.pl3   1  UNL1       -0.3300
     14 H         143.5938  131.9665  153.1142 H       1  UNL1        0.1469
     15 C         141.4910  131.7042  153.5673 C.3     1  UNL1        0.1196
     16 C         140.6326  131.2118  154.6946 C.3     1  UNL1        0.1634
     17 C         141.3848  128.8314  155.4145 C.3     1  UNL1        0.1742
     18 O         140.3468  129.7459  154.8346 O.3     1  UNL1       -0.3493
     19 C         144.7139  130.4942  155.6279 C.1     1  UNL1        0.1032
     20 N         145.2087  129.1456  155.1962 N.1     1  UNL1       -0.1907
     21 C         141.7452  138.5861  158.2180 C.ar    1  UNL1        0.1387
     22 C         140.3472  138.9450  157.8099 C.ar    1  UNL1        0.0345
     23 C         139.2675  139.0516  158.8457 C.ar    1  UNL1        0.0019
     24 C         139.5859  138.7992  160.2897 C.ar    1  UNL1        0.0187
     25 CA        140.9840  138.4403  160.6978 C.ar    1  UNL1        0.1224
     26 N         142.0636  138.3337  159.6620 N.ar    1  UNL1       -0.2272
     27 C         141.3024  138.1879  162.1417 C.2     1  UNL1        0.2529
     28 O         140.8581  136.9134  162.7960 O.2     1  UNL1       -0.2815
     29 C         138.5062  138.9058  161.3255 C.3     1  UNL1        0.1218
     30 N         138.3293  140.1804  162.0961 N.am    1  UNL1       -0.2728
     31 C         138.1432  141.4780  161.3669 C.3     1  UNL1        0.1111
     32 C         137.9663  142.7527  162.1375 C.3     1  UNL1        0.0943
     33 N         137.9755  142.7298  163.6374 N.3     1  UNL1       -0.2623
     34 C         137.7986  144.0045  164.4080 C.3     1  UNL1        0.0901
     35 C         138.1616  141.4323  164.3665 C.3     1  UNL1        0.1587
     36 C         138.3385  140.1576  163.5959 C.2     1  UNL1        0.2423
     37 O         138.5246  138.8600  164.3250 O.2     1  UNL1       -0.2733
@<TRIPOS>BOND
     1    17    18    1
     2    18    16    1
     3    16    15    1
     4    15    13    1
     5    13     7    1
     6     7     8   ar
     7     8     9   ar
     8     9     1    1
     9     1     2   am
    10     2     3    2
    11     2     4   am
    12     4     5    1
    13     4    21    1
    14    21    22   ar
    15    22    23   ar
    16    23    24   ar
    17    24    29    1
    18    29    30    1
    19    30    31    1
    20    31    32    1
    21    32    33    1
    22    33    34    1
    23    33    35    1
    24    35    36    1
    25    36    37    2
    26    24    25   ar
    27    25    27    1
    28    27    28    2
    29    25    26   ar
    30     9    10   ar
    31    10    11   ar
    32    11    12   ar
    33    12    19    1
    34    19    20    3
    35    12     7   ar
    36    26    21   ar
    37    36    30   am
    38    13    14    1
    39     1     6    1
@<TRIPOS>MOLECULE
*****
 37 39 0 0 0
SMALL
GASTEIGER

@<TRIPOS>ATOM
      1 N         140.2423  141.7161  164.1104 N.am    1  UNL1       -0.2531
      2 C         139.8389  143.1598  164.0552 C.2     1  UNL1        0.3136
      3 O         140.0006  144.0306  165.2659 O.2     1  UNL1       -0.2518
      4 N         139.2738  143.7327  162.7893 N.am    1  UNL1       -0.2262
      5 C         138.8705  145.1764  162.7341 C.3     1  UNL1        0.1231
      6 H         140.1362  141.1446  163.3159 H       1  UNL1        0.1578
      7 C         140.4595  140.2195  167.7796 C.ar    1  UNL1        0.0588
      8 C         139.8945  140.7924  166.5138 C.ar    1  UNL1        0.0495
      9 C         140.8074  141.1432  165.3764 C.ar    1  UNL1        0.1366
     10 N         142.2852  140.9211  165.5048 N.ar    1  UNL1       -0.2282
     11 C         142.8502  140.3482  166.7707 C.ar    1  UNL1        0.1118
     12 C         141.9374  139.9974  167.9081 C.ar    1  UNL1        0.1007
     13 N         139.5467  139.8688  168.9170 N.pl3   1  UNL1       -0.3300
     14 H         139.1344  138.9758  168.9599 H       1  UNL1        0.1469
     15 C         139.2621  140.8785  169.9891 C.3     1  UNL1        0.1196
     16 C         139.9631  142.2045  169.9757 C.3     1  UNL1        0.1634
     17 C         142.4174  142.9985  170.2863 C.3     1  UNL1        0.1742
     18 O         141.1524  142.4331  170.8609 O.3     1  UNL1       -0.3493
     19 C         142.5025  139.4245  169.1741 C.1     1  UNL1        0.1032
     20 N         143.0676  138.8516  170.4399 N.1     1  UNL1       -0.1907
     21 C         139.1121  142.8620  161.5787 C.ar    1  UNL1        0.1387
     22 C         139.7616  143.2501  160.2835 C.ar    1  UNL1        0.0345
     23 C         139.5999  142.3794  159.0729 C.ar    1  UNL1        0.0019
     24 C         138.7887  141.1205  159.1575 C.ar    1  UNL1        0.0187
     25 CA        138.1392  140.7323  160.4526 C.ar    1  UNL1        0.1224
     26 N         138.3009  141.6031  161.6632 N.ar    1  UNL1       -0.2272
     27 C         137.3280  139.4735  160.5372 C.2     1  UNL1        0.2529
     28 O         137.6632  138.4328  161.5641 O.2     1  UNL1       -0.2815
     29 C         138.6270  140.2497  157.9468 C.3     1  UNL1        0.1218
     30 N         139.6531  139.2011  157.6347 N.am    1  UNL1       -0.2728
     31 C         140.8790  139.0735  158.4895 C.3     1  UNL1        0.1111
     32 C         141.9051  138.0248  158.1774 C.3     1  UNL1        0.0943
     33 N         141.7052  137.1037  157.0105 N.3     1  UNL1       -0.2623
     34 C         142.7313  136.0550  156.6984 C.3     1  UNL1        0.0901
     35 C         140.4793  137.2313  156.1557 C.3     1  UNL1        0.1587
     36 C         139.4532  138.2800  156.4678 C.2     1  UNL1        0.2423
     37 O         138.2272  138.4076  155.6130 O.2     1  UNL1       -0.2733
@<TRIPOS>BOND
     1    17    18    1
     2    18    16    1
     3    16    15    1
     4    15    13    1
     5    13     7    1
     6     7     8   ar
     7     8     9   ar
     8     9     1    1
     9     1     2   am
    10     2     3    2
    11     2     4   am
    12     4     5    1
    13     4    21    1
    14    21    22   ar
    15    22    23   ar
    16    23    24   ar
    17    24    29    1
    18    29    30    1
    19    30    31    1
    20    31    32    1
    21    32    33    1
    22    33    34    1
    23    33    35    1
    24    35    36    1
    25    36    37    2
    26    24    25   ar
    27    25    27    1
    28    27    28    2
    29    25    26   ar
    30     9    10   ar
    31    10    11   ar
    32    11    12   ar
    33    12    19    1
    34    19    20    3
    35    12     7   ar
    36    26    21   ar
    37    36    30   am
    38    13    14    1
    39     1     6    1
@<TRIPOS>MOLECULE
*****
 37 39 0 0 0
SMALL
GASTEIGER

@<TRIPOS>ATOM
      1 N         142.3777  136.2429  156.9857 N.am    1  UNL1       -0.2531
      2 C         143.2012  137.4608  156.6881 C.2     1  UNL1        0.3136
      3 O         144.3187  137.3851  155.6902 O.2     1  UNL1       -0.2518
      4 N         142.9073  138.7543  157.3882 N.am    1  UNL1       -0.2262
      5 C         143.7308  139.9722  157.0906 C.3     1  UNL1        0.1231
      6 H         141.6443  136.2926  157.6405 H       1  UNL1        0.1578
      7 C         144.1086  132.7984  156.0424 C.ar    1  UNL1        0.0588
      8 C         143.8146  134.0919  156.7425 C.ar    1  UNL1        0.0495
      9 C         142.6717  134.9493  156.2855 C.ar    1  UNL1        0.1366
     10 N         141.8229  134.5131  155.1283 N.ar    1  UNL1       -0.2282
     11 C         142.1169  133.2195  154.4281 C.ar    1  UNL1        0.1118
     12 C         143.2598  132.3622  154.8852 C.ar    1  UNL1        0.1007
     13 N         145.2514  131.9410  156.4995 N.pl3   1  UNL1       -0.3300
     14 H         146.0125  131.7737  155.8979 H       1  UNL1        0.1469
     15 C         145.2346  131.3387  157.8731 C.3     1  UNL1        0.1196
     16 C         144.4025  130.1213  158.1481 C.3     1  UNL1        0.1634
     17 C         144.8902  128.1020  156.5879 C.3     1  UNL1        0.1742
     18 O         143.9917  129.2230  157.0192 O.3     1  UNL1       -0.3493
     19 C         143.5537  131.0685  154.1850 C.1     1  UNL1        0.1032
     20 N         143.8477  129.7750  153.4849 N.1     1  UNL1       -0.1907
     21 C         141.7898  138.8301  158.3860 C.ar    1  UNL1        0.1387
     22 C         140.4076  139.2016  157.9373 C.ar    1  UNL1        0.0345
     23 C         139.2902  139.2773  158.9351 C.ar    1  UNL1        0.0019
     24 C         139.5550  138.9815  160.3816 C.ar    1  UNL1        0.0187
     25 CA        140.9373  138.6100  160.8303 C.ar    1  UNL1        0.1224
     26 N         142.0547  138.5343  159.8325 N.ar    1  UNL1       -0.2272
     27 C         141.2021  138.3142  162.2768 C.2     1  UNL1        0.2529
     28 O         140.8724  136.9631  162.8386 O.2     1  UNL1       -0.2815
     29 C         138.4376  139.0572  161.3794 C.3     1  UNL1        0.1218
     30 N         138.2488  140.2976  162.2014 N.am    1  UNL1       -0.2728
     31 C         138.0597  141.6235  161.5259 C.3     1  UNL1        0.1111
     32 C         137.8710  142.8638  162.3479 C.3     1  UNL1        0.0943
     33 N         137.8714  142.7784  163.8456 N.3     1  UNL1       -0.2623
     34 C         137.6827  144.0188  164.6676 C.3     1  UNL1        0.0901
     35 C         138.0606  141.4526  164.5211 C.3     1  UNL1        0.1587
     36 C         138.2493  140.2121  163.6990 C.2     1  UNL1        0.2423
     37 O         138.4384  138.8863  164.3745 O.2     1  UNL1       -0.2733
@<TRIPOS>BOND
     1    17    18    1
     2    18    16    1
     3    16    15    1
     4    15    13    1
     5    13     7    1
     6     7     8   ar
     7     8     9   ar
     8     9     1    1
     9     1     2   am
    10     2     3    2
    11     2     4   am
    12     4     5    1
    13     4    21    1
    14    21    22   ar
    15    22    23   ar
    16    23    24   ar
    17    24    29    1
    18    29    30    1
    19    30    31    1
    20    31    32    1
    21    32    33    1
    22    33    34    1
    23    33    35    1
    24    35    36    1
    25    36    37    2
    26    24    25   ar
    27    25    27    1
    28    27    28    2
    29    25    26   ar
    30     9    10   ar
    31    10    11   ar
    32    11    12   ar
    33    12    19    1
    34    19    20    3
    35    12     7   ar
    36    26    21   ar
    37    36    30   am
    38    13    14    1
    39     1     6    1
@<TRIPOS>MOLECULE
*****
 37 39 0 0 0
SMALL
GASTEIGER

@<TRIPOS>ATOM
      1 N         140.5667  142.7637  163.9544 N.am    1  UNL1       -0.2531
      2 C         140.0409  144.1285  163.6214 C.2     1  UNL1        0.3136
      3 O         139.2540  144.8983  164.6404 O.2     1  UNL1       -0.2518
      4 N         140.3020  144.7235  162.2694 N.am    1  UNL1       -0.2262
      5 C         139.7762  146.0883  161.9364 C.3     1  UNL1        0.1231
      6 H         141.0831  142.2585  163.2856 H       1  UNL1        0.1578
      7 C         140.3991  142.3420  167.8970 C.ar    1  UNL1        0.0588
      8 C         140.6602  142.9370  166.5450 C.ar    1  UNL1        0.0495
      9 C         140.3056  142.1688  165.3064 C.ar    1  UNL1        0.1366
     10 N         139.6900  140.8056  165.4198 N.ar    1  UNL1       -0.2282
     11 C         139.4290  140.2107  166.7717 C.ar    1  UNL1        0.1118
     12 C         139.7835  140.9789  168.0103 C.ar    1  UNL1        0.1007
     13 N         140.7537  143.1102  169.1356 N.pl3   1  UNL1       -0.3300
     14 H         140.1319  143.7859  169.4907 H       1  UNL1        0.1469
     15 C         142.0556  142.8490  169.8332 C.3     1  UNL1        0.1196
     16 C         143.1456  142.0960  169.1297 C.3     1  UNL1        0.1634
     17 C         142.9810  139.9840  170.6338 C.3     1  UNL1        0.1742
     18 O         143.2611  140.6101  169.2998 O.3     1  UNL1       -0.3493
     19 C         139.5224  140.3839  169.3624 C.1     1  UNL1        0.1032
     20 N         139.2613  139.7889  170.7143 N.1     1  UNL1       -0.1907
     21 C         141.0888  143.9537  161.2504 C.ar    1  UNL1        0.1387
     22 C         140.4250  143.4804  159.9913 C.ar    1  UNL1        0.0345
     23 C         141.2119  142.7107  158.9724 C.ar    1  UNL1        0.0019
     24 C         142.6626  142.4142  159.2125 C.ar    1  UNL1        0.0187
     25 CA        143.3264  142.8875  160.4716 C.ar    1  UNL1        0.1224
     26 N         142.5395  143.6573  161.4905 N.ar    1  UNL1       -0.2272
     27 C         144.7770  142.5911  160.7118 C.2     1  UNL1        0.2529
     28 O         145.1818  141.6930  161.8429 O.2     1  UNL1       -0.2815
     29 C         143.4494  141.6444  158.1935 C.3     1  UNL1        0.1218
     30 N         142.9266  140.3389  157.6720 N.am    1  UNL1       -0.2728
     31 C         142.1342  140.3031  156.3989 C.3     1  UNL1        0.1111
     32 C         141.6114  138.9975  155.8773 C.3     1  UNL1        0.0943
     33 N         141.8808  137.7276  156.6290 N.3     1  UNL1       -0.2623
     34 C         141.3579  136.4220  156.1075 C.3     1  UNL1        0.0901
     35 C         142.6732  137.7634  157.9021 C.3     1  UNL1        0.1587
     36 C         143.1960  139.0691  158.4236 C.2     1  UNL1        0.2423
     37 O         143.9884  139.1049  159.6968 O.2     1  UNL1       -0.2733
@<TRIPOS>BOND
     1    17    18    1
     2    18    16    1
     3    16    15    1
     4    15    13    1
     5    13     7    1
     6     7     8   ar
     7     8     9   ar
     8     9     1    1
     9     1     2   am
    10     2     3    2
    11     2     4   am
    12     4     5    1
    13     4    21    1
    14    21    22   ar
    15    22    23   ar
    16    23    24   ar
    17    24    29    1
    18    29    30    1
    19    30    31    1
    20    31    32    1
    21    32    33    1
    22    33    34    1
    23    33    35    1
    24    35    36    1
    25    36    37    2
    26    24    25   ar
    27    25    27    1
    28    27    28    2
    29    25    26   ar
    30     9    10   ar
    31    10    11   ar
    32    11    12   ar
    33    12    19    1
    34    19    20    3
    35    12     7   ar
    36    26    21   ar
    37    36    30   am
    38    13    14    1
    39     1     6    1
@<TRIPOS>MOLECULE
*****
 37 39 0 0 0
SMALL
GASTEIGER

@<TRIPOS>ATOM
      1 N         140.7487  142.7593  164.0791 N.am    1  UNL1       -0.2531
      2 C         140.1996  144.1171  163.7551 C.2     1  UNL1        0.3136
      3 O         139.4352  144.8842  164.7931 O.2     1  UNL1       -0.2518
      4 N         140.4147  144.7077  162.3932 N.am    1  UNL1       -0.2262
      5 C         139.8656  146.0654  162.0692 C.3     1  UNL1        0.1231
      6 H         141.2503  142.2558  163.3979 H       1  UNL1        0.1578
      7 C         139.4510  140.3651  166.9660 C.ar    1  UNL1        0.0588
      8 C         139.6663  140.9557  165.6041 C.ar    1  UNL1        0.0495
      9 C         140.5335  142.1687  165.4411 C.ar    1  UNL1        0.1366
     10 N         141.1855  142.7911  166.6401 N.ar    1  UNL1       -0.2282
     11 C         140.9703  142.2005  168.0020 C.ar    1  UNL1        0.1118
     12 C         140.1031  140.9876  168.1650 C.ar    1  UNL1        0.1007
     13 N         138.5838  139.1522  167.1290 N.pl3   1  UNL1       -0.3300
     14 H         138.3306  138.8455  168.0296 H       1  UNL1        0.1469
     15 C         138.1024  138.4064  165.9199 C.3     1  UNL1        0.1196
     16 C         139.0774  137.6472  165.0696 C.3     1  UNL1        0.1634
     17 C         138.6424  138.6636  162.7184 C.3     1  UNL1        0.1742
     18 O         138.8117  137.4652  163.6045 O.3     1  UNL1       -0.3493
     19 C         139.8879  140.3970  169.5270 C.1     1  UNL1        0.1032
     20 N         139.6727  139.8064  170.8889 N.1     1  UNL1       -0.1907
     21 C         141.1791  143.9405  161.3552 C.ar    1  UNL1        0.1387
     22 C         140.4988  143.5076  160.0904 C.ar    1  UNL1        0.0345
     23 C         141.2631  142.7405  159.0525 C.ar    1  UNL1        0.0019
     24 C         142.7077  142.4063  159.2794 C.ar    1  UNL1        0.0187
     25 CA        143.3879  142.8391  160.5443 C.ar    1  UNL1        0.1224
     26 N         142.6236  143.6062  161.5822 N.ar    1  UNL1       -0.2272
     27 C         144.8325  142.5049  160.7712 C.2     1  UNL1        0.2529
     28 O         145.2373  141.7051  161.9739 O.2     1  UNL1       -0.2815
     29 C         143.4720  141.6391  158.2414 C.3     1  UNL1        0.1218
     30 N         142.9397  140.3330  157.7309 N.am    1  UNL1       -0.2728
     31 C         142.1512  140.2916  156.4555 C.3     1  UNL1        0.1111
     32 C         141.6189  138.9856  155.9449 C.3     1  UNL1        0.0943
     33 N         141.8750  137.7208  156.7097 N.3     1  UNL1       -0.2623
     34 C         141.3426  136.4147  156.1992 C.3     1  UNL1        0.0901
     35 C         142.6634  137.7622  157.9851 C.3     1  UNL1        0.1587
     36 C         143.1958  139.0684  158.4957 C.2     1  UNL1        0.2423
     37 O         143.9842  139.1098  159.7711 O.2     1  UNL1       -0.2733
@<TRIPOS>BOND
     1    17    18    1
     2    18    16    1
     3    16    15    1
     4    15    13    1
     5    13     7    1
     6     7     8   ar
     7     8     9   ar
     8     9     1    1
     9     1     2   am
    10     2     3    2
    11     2     4   am
    12     4     5    1
    13     4    21    1
    14    21    22   ar
    15    22    23   ar
    16    23    24   ar
    17    24    29    1
    18    29    30    1
    19    30    31    1
    20    31    32    1
    21    32    33    1
    22    33    34    1
    23    33    35    1
    24    35    36    1
    25    36    37    2
    26    24    25   ar
    27    25    27    1
    28    27    28    2
    29    25    26   ar
    30     9    10   ar
    31    10    11   ar
    32    11    12   ar
    33    12    19    1
    34    19    20    3
    35    12     7   ar
    36    26    21   ar
    37    36    30   am
    38    13    14    1
    39     1     6    1
@<TRIPOS>MOLECULE
*****
 37 39 0 0 0
SMALL
GASTEIGER

@<TRIPOS>ATOM
      1 N         141.5564  138.1584  159.7629 N.am    1  UNL1       -0.2531
      2 C         140.6118  139.1886  159.2186 C.2     1  UNL1        0.3136
      3 O         140.0622  140.2534  160.1210 O.2     1  UNL1       -0.2518
      4 N         140.2167  139.1541  157.7720 N.am    1  UNL1       -0.2262
      5 C         139.2721  140.1843  157.2277 C.3     1  UNL1        0.1231
      6 H         141.9172  137.4595  159.1707 H       1  UNL1        0.1578
      7 C         143.6439  138.8602  163.0645 C.ar    1  UNL1        0.0588
      8 C         143.2488  138.8256  161.6179 C.ar    1  UNL1        0.0495
      9 C         141.9515  138.1930  161.2096 C.ar    1  UNL1        0.1366
     10 N         141.0492  137.5950  162.2480 N.ar    1  UNL1       -0.2282
     11 C         141.4442  137.6296  163.6946 C.ar    1  UNL1        0.1118
     12 C         142.7416  138.2622  164.1028 C.ar    1  UNL1        0.1007
     13 N         144.9413  139.4928  163.4727 N.pl3   1  UNL1       -0.3300
     14 H         145.7675  138.9576  163.4847 H       1  UNL1        0.1469
     15 C         144.9797  140.9407  163.8626 C.3     1  UNL1        0.1196
     16 C         145.6258  141.9450  162.9549 C.3     1  UNL1        0.1634
     17 C         144.1920  144.0993  162.7242 C.3     1  UNL1        0.1742
     18 O         144.7764  142.8570  162.1201 O.3     1  UNL1       -0.3493
     19 C         143.1366  138.2968  165.5495 C.1     1  UNL1        0.1032
     20 N         143.5316  138.3314  166.9961 N.1     1  UNL1       -0.1907
     21 C         140.7663  138.0893  156.8696 C.ar    1  UNL1        0.1387
     22 C         139.8334  137.1608  156.1503 C.ar    1  UNL1        0.0345
     23 C         140.3830  136.0960  155.2480 C.ar    1  UNL1        0.0019
     24 C         141.8656  135.9598  155.0650 C.ar    1  UNL1        0.0187
     25 CA        142.7985  136.8883  155.7843 C.ar    1  UNL1        0.1224
     26 N         142.2489  137.9530  156.6867 N.ar    1  UNL1       -0.2272
     27 C         144.2811  136.7521  155.6014 C.2     1  UNL1        0.2529
     28 O         145.1436  137.9771  155.5296 O.2     1  UNL1       -0.2815
     29 C         142.4152  134.8950  154.1627 C.3     1  UNL1        0.1218
     30 N         142.0628  133.4563  154.3990 N.am    1  UNL1       -0.2728
     31 C         141.1430  132.7441  153.4520 C.3     1  UNL1        0.1111
     32 C         140.7906  131.3054  153.6883 C.3     1  UNL1        0.0943
     33 N         141.3580  130.5788  154.8716 N.3     1  UNL1       -0.2623
     34 C         141.0056  129.1401  155.1080 C.3     1  UNL1        0.0901
     35 C         142.2778  131.2910  155.8186 C.3     1  UNL1        0.1587
     36 C         142.6302  132.7298  155.5822 C.2     1  UNL1        0.2423
     37 O         143.5501  133.4419  156.5292 O.2     1  UNL1       -0.2733
@<TRIPOS>BOND
     1    17    18    1
     2    18    16    1
     3    16    15    1
     4    15    13    1
     5    13     7    1
     6     7     8   ar
     7     8     9   ar
     8     9     1    1
     9     1     2   am
    10     2     3    2
    11     2     4   am
    12     4     5    1
    13     4    21    1
    14    21    22   ar
    15    22    23   ar
    16    23    24   ar
    17    24    29    1
    18    29    30    1
    19    30    31    1
    20    31    32    1
    21    32    33    1
    22    33    34    1
    23    33    35    1
    24    35    36    1
    25    36    37    2
    26    24    25   ar
    27    25    27    1
    28    27    28    2
    29    25    26   ar
    30     9    10   ar
    31    10    11   ar
    32    11    12   ar
    33    12    19    1
    34    19    20    3
    35    12     7   ar
    36    26    21   ar
    37    36    30   am
    38    13    14    1
    39     1     6    1
@<TRIPOS>MOLECULE
*****
 37 39 0 0 0
SMALL
GASTEIGER

@<TRIPOS>ATOM
      1 N         140.2890  140.8679  163.9928 N.am    1  UNL1       -0.2531
      2 C         139.2298  140.0462  163.3199 C.2     1  UNL1        0.3136
      3 O         138.7583  138.7690  163.9499 O.2     1  UNL1       -0.2518
      4 N         138.6421  140.5015  162.0172 N.am    1  UNL1       -0.2262
      5 C         137.5829  139.6797  161.3442 C.3     1  UNL1        0.1231
      6 H         140.5985  141.7061  163.5794 H       1  UNL1        0.1578
      7 C         140.6229  139.9534  167.8402 C.ar    1  UNL1        0.0588
      8 C         140.0353  140.4087  166.5374 C.ar    1  UNL1        0.0495
      9 C         140.8767  140.4126  165.2957 C.ar    1  UNL1        0.1366
     10 N         142.3058  139.9611  165.3567 N.ar    1  UNL1       -0.2282
     11 C         142.8935  139.5057  166.6595 C.ar    1  UNL1        0.1118
     12 C         142.0520  139.5019  167.9013 C.ar    1  UNL1        0.1007
     13 N         139.7814  139.9496  169.0820 N.pl3   1  UNL1       -0.3300
     14 H         139.3525  139.1163  169.3833 H       1  UNL1        0.1469
     15 C         139.5935  141.2154  169.8645 C.3     1  UNL1        0.1196
     16 C         140.6935  141.7193  170.7511 C.3     1  UNL1        0.1634
     17 C         142.8658  143.1352  170.5890 C.3     1  UNL1        0.1742
     18 O         141.3788  143.0152  170.4332 O.3     1  UNL1       -0.3493
     19 C         142.6397  139.0466  169.2041 C.1     1  UNL1        0.1032
     20 N         143.2274  138.5912  170.5069 N.1     1  UNL1       -0.1907
     21 C         139.1136  141.7786  161.3872 C.ar    1  UNL1        0.1387
     22 C         139.3252  141.8498  159.9040 C.ar    1  UNL1        0.0345
     23 C         139.7966  143.1269  159.2741 C.ar    1  UNL1        0.0019
     24 C         140.0565  144.3327  160.1275 C.ar    1  UNL1        0.0187
     25 CA        139.8449  144.2615  161.6108 C.ar    1  UNL1        0.1224
     26 N         139.3735  142.9845  162.2406 N.ar    1  UNL1       -0.2272
     27 C         140.1048  145.4674  162.4642 C.2     1  UNL1        0.2529
     28 O         141.4241  145.6230  163.1608 O.2     1  UNL1       -0.2815
     29 C         140.5280  145.6099  159.4976 C.3     1  UNL1        0.1218
     30 N         140.7834  145.6680  158.0207 N.am    1  UNL1       -0.2728
     31 C         139.8049  146.3579  157.1169 C.3     1  UNL1        0.1111
     32 C         140.0603  146.4160  155.6400 C.3     1  UNL1        0.0943
     33 N         141.2942  145.7843  155.0667 N.3     1  UNL1       -0.2623
     34 C         141.5495  145.8424  153.5898 C.3     1  UNL1        0.0901
     35 C         142.2726  145.0944  155.9705 C.3     1  UNL1        0.1587
     36 C         142.0172  145.0363  157.4475 C.2     1  UNL1        0.2423
     37 O         142.9956  144.3464  158.3512 O.2     1  UNL1       -0.2733
@<TRIPOS>BOND
     1    17    18    1
     2    18    16    1
     3    16    15    1
     4    15    13    1
     5    13     7    1
     6     7     8   ar
     7     8     9   ar
     8     9     1    1
     9     1     2   am
    10     2     3    2
    11     2     4   am
    12     4     5    1
    13     4    21    1
    14    21    22   ar
    15    22    23   ar
    16    23    24   ar
    17    24    29    1
    18    29    30    1
    19    30    31    1
    20    31    32    1
    21    32    33    1
    22    33    34    1
    23    33    35    1
    24    35    36    1
    25    36    37    2
    26    24    25   ar
    27    25    27    1
    28    27    28    2
    29    25    26   ar
    30     9    10   ar
    31    10    11   ar
    32    11    12   ar
    33    12    19    1
    34    19    20    3
    35    12     7   ar
    36    26    21   ar
    37    36    30   am
    38    13    14    1
    39     1     6    1
@<TRIPOS>MOLECULE
*****
 37 39 0 0 0
SMALL
GASTEIGER

@<TRIPOS>ATOM
      1 N         141.2769  141.4298  162.9863 N.am    1  UNL1       -0.2531
      2 C         142.7671  141.3597  163.1427 C.2     1  UNL1        0.3136
      3 O         143.3676  140.5429  164.2483 O.2     1  UNL1       -0.2518
      4 N         143.6567  142.1064  162.1935 N.am    1  UNL1       -0.2262
      5 C         145.1469  142.0363  162.3499 C.3     1  UNL1        0.1231
      6 H         140.8827  141.9659  162.2607 H       1  UNL1        0.1578
      7 C         139.6401  140.1405  166.3640 C.ar    1  UNL1        0.0588
      8 C         140.5297  140.8871  165.4148 C.ar    1  UNL1        0.0495
      9 C         140.3872  140.6831  163.9356 C.ar    1  UNL1        0.1366
     10 N         139.3552  139.7324  163.4056 N.ar    1  UNL1       -0.2282
     11 C         138.4656  138.9857  164.3548 C.ar    1  UNL1        0.1118
     12 C         138.6080  139.1898  165.8340 C.ar    1  UNL1        0.1007
     13 N         139.7826  140.3445  167.8432 N.pl3   1  UNL1       -0.3300
     14 H         138.9811  140.3937  168.4128 H       1  UNL1        0.1469
     15 C         141.1462  140.4737  168.4546 C.3     1  UNL1        0.1196
     16 C         141.6906  141.8296  168.7939 C.3     1  UNL1        0.1634
     17 C         140.9366  141.9110  171.2789 C.3     1  UNL1        0.1742
     18 O         141.1303  142.5933  169.9571 O.3     1  UNL1       -0.3493
     19 C         137.7184  138.4431  166.7833 C.1     1  UNL1        0.1032
     20 N         136.8288  137.6964  167.7325 N.1     1  UNL1       -0.1907
     21 C         143.0562  142.9232  161.0879 C.ar    1  UNL1        0.1387
     22 C         143.5671  142.7774  159.6852 C.ar    1  UNL1        0.0345
     23 C         142.9666  143.5942  158.5797 C.ar    1  UNL1        0.0019
     24 C         141.8552  144.5567  158.8769 C.ar    1  UNL1        0.0187
     25 CA        141.3443  144.7025  160.2796 C.ar    1  UNL1        0.1224
     26 N         141.9448  143.8857  161.3851 N.ar    1  UNL1       -0.2272
     27 C         140.2330  145.6650  160.5769 C.2     1  UNL1        0.2529
     28 O         139.2501  145.3619  161.6687 O.2     1  UNL1       -0.2815
     29 C         141.2547  145.3735  157.7713 C.3     1  UNL1        0.1218
     30 N         140.0463  144.8707  157.0385 N.am    1  UNL1       -0.2728
     31 C         139.5144  143.4973  157.3230 C.3     1  UNL1        0.1111
     32 C         138.3060  142.9945  156.5902 C.3     1  UNL1        0.0943
     33 N         137.6296  143.8650  155.5729 N.3     1  UNL1       -0.2623
     34 C         136.4212  143.3621  154.8402 C.3     1  UNL1        0.0901
     35 C         138.1616  145.2383  155.2885 C.3     1  UNL1        0.1587
     36 C         139.3700  145.7411  156.0213 C.2     1  UNL1        0.2423
     37 O         139.9020  147.1145  155.7369 O.2     1  UNL1       -0.2733
@<TRIPOS>BOND
     1    17    18    1
     2    18    16    1
     3    16    15    1
     4    15    13    1
     5    13     7    1
     6     7     8   ar
     7     8     9   ar
     8     9     1    1
     9     1     2   am
    10     2     3    2
    11     2     4   am
    12     4     5    1
    13     4    21    1
    14    21    22   ar
    15    22    23   ar
    16    23    24   ar
    17    24    29    1
    18    29    30    1
    19    30    31    1
    20    31    32    1
    21    32    33    1
    22    33    34    1
    23    33    35    1
    24    35    36    1
    25    36    37    2
    26    24    25   ar
    27    25    27    1
    28    27    28    2
    29    25    26   ar
    30     9    10   ar
    31    10    11   ar
    32    11    12   ar
    33    12    19    1
    34    19    20    3
    35    12     7   ar
    36    26    21   ar
    37    36    30   am
    38    13    14    1
    39     1     6    1
@<TRIPOS>MOLECULE
*****
 37 39 0 0 0
SMALL
GASTEIGER

@<TRIPOS>ATOM
      1 N         142.6751  136.6551  158.1240 N.am    1  UNL1       -0.2531
      2 C         143.1122  138.0567  157.8167 C.2     1  UNL1        0.3136
      3 O         143.6020  138.4053  156.4424 O.2     1  UNL1       -0.2518
      4 N         143.0595  139.1097  158.8837 N.am    1  UNL1       -0.2262
      5 C         143.4966  140.5114  158.5764 C.3     1  UNL1        0.1231
      6 H         142.3536  136.4263  159.0260 H       1  UNL1        0.1578
      7 C         143.8396  133.4879  156.0353 C.ar    1  UNL1        0.0588
      8 C         143.7869  134.5409  157.1023 C.ar    1  UNL1        0.0495
      9 C         142.7277  135.6021  157.0570 C.ar    1  UNL1        0.1366
     10 N         141.7213  135.6103  155.9448 N.ar    1  UNL1       -0.2282
     11 C         141.7740  134.5574  154.8779 C.ar    1  UNL1        0.1118
     12 C         142.8332  133.4962  154.9231 C.ar    1  UNL1        0.1007
     13 N         144.8987  132.4267  156.0806 N.pl3   1  UNL1       -0.3300
     14 H         145.3389  132.1348  155.2497 H       1  UNL1        0.1469
     15 C         145.2873  131.8103  157.3916 C.3     1  UNL1        0.1196
     16 C         144.5520  130.6065  157.9017 C.3     1  UNL1        0.1634
     17 C         142.7916  129.4693  156.3661 C.3     1  UNL1        0.1742
     18 O         143.1214  130.3804  157.5111 O.3     1  UNL1       -0.3493
     19 C         142.8859  132.4431  153.8561 C.1     1  UNL1        0.1032
     20 N         142.9385  131.3902  152.7891 N.1     1  UNL1       -0.1907
     21 C         142.5697  138.7612  160.2580 C.ar    1  UNL1        0.1387
     22 C         143.5418  138.6503  161.3949 C.ar    1  UNL1        0.0345
     23 C         143.0520  138.3017  162.7691 C.ar    1  UNL1        0.0019
     24 C         141.5901  138.0640  163.0064 C.ar    1  UNL1        0.0187
     25 CA        140.6180  138.1749  161.8695 C.ar    1  UNL1        0.1224
     26 N         141.1078  138.5234  160.4953 N.ar    1  UNL1       -0.2272
     27 C         139.1561  137.9372  162.1068 C.2     1  UNL1        0.2529
     28 O         138.2478  139.0920  162.4091 O.2     1  UNL1       -0.2815
     29 C         141.1003  137.7154  164.3808 C.3     1  UNL1        0.1218
     30 N         140.9482  138.7888  165.4174 N.am    1  UNL1       -0.2728
     31 C         142.1447  139.5761  165.8630 C.3     1  UNL1        0.1111
     32 C         141.9926  140.6495  166.8997 C.3     1  UNL1        0.0943
     33 N         140.6439  140.9356  167.4908 N.3     1  UNL1       -0.2623
     34 C         140.4918  142.0090  168.5274 C.3     1  UNL1        0.0901
     35 C         139.4474  140.1483  167.0451 C.3     1  UNL1        0.1587
     36 C         139.5996  139.0749  166.0084 C.2     1  UNL1        0.2423
     37 O         138.4031  138.2876  165.5628 O.2     1  UNL1       -0.2733
@<TRIPOS>BOND
     1    17    18    1
     2    18    16    1
     3    16    15    1
     4    15    13    1
     5    13     7    1
     6     7     8   ar
     7     8     9   ar
     8     9     1    1
     9     1     2   am
    10     2     3    2
    11     2     4   am
    12     4     5    1
    13     4    21    1
    14    21    22   ar
    15    22    23   ar
    16    23    24   ar
    17    24    29    1
    18    29    30    1
    19    30    31    1
    20    31    32    1
    21    32    33    1
    22    33    34    1
    23    33    35    1
    24    35    36    1
    25    36    37    2
    26    24    25   ar
    27    25    27    1
    28    27    28    2
    29    25    26   ar
    30     9    10   ar
    31    10    11   ar
    32    11    12   ar
    33    12    19    1
    34    19    20    3
    35    12     7   ar
    36    26    21   ar
    37    36    30   am
    38    13    14    1
    39     1     6    1
