@<TRIPOS>MOLECULE
*****
 23 25 0 0 0
SMALL
GASTEIGER

@<TRIPOS>ATOM
      1 C         138.6248  139.3411  165.9755 C.ar    1  UNL1        0.0397
      2 C         137.6378  138.7794  166.9553 C.ar    1  UNL1        0.1216
      3 N         138.1320  139.0851  168.3382 N.ar    1  UNL1       -0.1673
      4 N         139.4246  139.8359  168.2129 N.ar    1  UNL1       -0.2433
      5 C         139.7291  139.9941  166.7527 C.ar    1  UNL1        0.0971
      6 F         138.2258  139.0308  159.9968 F       1  UNL1       -0.2010
      7 C         138.3255  139.1084  161.4915 C.ar    1  UNL1        0.1740
      8 C         138.8120  137.9242  162.2731 C.ar    1  UNL1        0.0328
      9 C         138.9117  138.0018  163.7678 C.ar    1  UNL1        0.0026
     10 C         138.5250  139.2635  164.4808 C.ar    1  UNL1        0.0062
     11 C         138.0386  140.4477  163.6991 C.ar    1  UNL1        0.0395
     12 C         137.9388  140.3701  162.2044 C.ar    1  UNL1        0.1715
     13 O         137.4523  141.5544  161.4228 O.3     1  UNL1       -0.4213
     14 C         138.0197  142.9162  161.6937 C.3     1  UNL1        0.5087
     15 F         139.2063  143.4028  160.9158 F       1  UNL1       -0.1550
     16 F         137.4004  143.7916  162.7427 F       1  UNL1       -0.1550
     17 C         140.2651  140.3399  169.3485 C.3     1  UNL1        0.1722
     18 C         140.1486  141.7684  169.7914 C.ar    1  UNL1        0.0777
     19 C         140.9169  142.9297  169.2338 C.ar    1  UNL1        0.0385
     20 C         140.4866  144.1653  169.9674 C.ar    1  UNL1        0.1211
     21 N         139.4523  143.7675  170.9784 N.ar    1  UNL1       -0.1713
     22 N         139.2434  142.2862  170.8695 N.ar    1  UNL1       -0.2778
     23 H         138.6214  141.7482  171.4108 H       1  UNL1        0.1886
@<TRIPOS>BOND
     1     6     7    1
     2     7     8   ar
     3     8     9   ar
     4     9    10   ar
     5    10     1    1
     6     1     2   ar
     7     2     3   ar
     8     3     4   ar
     9     4    17    1
    10    17    18    1
    11    18    19   ar
    12    19    20   ar
    13    20    21   ar
    14    21    22   ar
    15     4     5   ar
    16    10    11   ar
    17    11    12   ar
    18    12    13    1
    19    13    14    1
    20    14    15    1
    21    14    16    1
    22    12     7   ar
    23     5     1   ar
    24    22    18   ar
    25    22    23    1
@<TRIPOS>MOLECULE
*****
 23 25 0 0 0
SMALL
GASTEIGER

@<TRIPOS>ATOM
      1 C         140.6978  139.3127  165.9550 C.ar    1  UNL1        0.0397
      2 C         142.1344  138.8885  166.0334 C.ar    1  UNL1        0.1216
      3 N         142.6452  139.2321  167.4012 N.ar    1  UNL1       -0.1673
      4 N         141.5243  139.8688  168.1682 N.ar    1  UNL1       -0.2433
      5 C         140.3208  139.9185  167.2744 C.ar    1  UNL1        0.0971
      6 F         137.0924  138.6946  161.1990 F       1  UNL1       -0.2010
      7 C         137.9938  138.8491  162.3880 C.ar    1  UNL1        0.1740
      8 C         138.8197  137.6889  162.8588 C.ar    1  UNL1        0.0328
      9 C         139.7210  137.8434  164.0478 C.ar    1  UNL1        0.0026
     10 C         139.7964  139.1582  164.7660 C.ar    1  UNL1        0.0062
     11 C         138.9705  140.3184  164.2952 C.ar    1  UNL1        0.0395
     12 C         138.0692  140.1638  163.1061 C.ar    1  UNL1        0.1715
     13 O         137.2432  141.3241  162.6353 O.3     1  UNL1       -0.4213
     14 C         137.4627  142.6876  163.2209 C.3     1  UNL1        0.5087
     15 F         137.3317  142.8984  164.7002 F       1  UNL1       -0.1550
     16 F         137.8132  143.8401  162.3271 F       1  UNL1       -0.1550
     17 C         141.5947  140.3680  169.5809 C.3     1  UNL1        0.1722
     18 C         140.9271  141.6583  169.9546 C.ar    1  UNL1        0.0777
     19 C         141.2439  143.0109  169.3889 C.ar    1  UNL1        0.0385
     20 C         140.3382  144.0111  170.0442 C.ar    1  UNL1        0.1211
     21 N         139.4616  143.2765  171.0148 N.ar    1  UNL1       -0.1713
     22 N         139.8256  141.8225  170.9594 N.ar    1  UNL1       -0.2778
     23 H         139.4139  141.1022  171.4895 H       1  UNL1        0.1886
@<TRIPOS>BOND
     1     6     7    1
     2     7     8   ar
     3     8     9   ar
     4     9    10   ar
     5    10     1    1
     6     1     2   ar
     7     2     3   ar
     8     3     4   ar
     9     4    17    1
    10    17    18    1
    11    18    19   ar
    12    19    20   ar
    13    20    21   ar
    14    21    22   ar
    15     4     5   ar
    16    10    11   ar
    17    11    12   ar
    18    12    13    1
    19    13    14    1
    20    14    15    1
    21    14    16    1
    22    12     7   ar
    23     5     1   ar
    24    22    18   ar
    25    22    23    1
@<TRIPOS>MOLECULE
*****
 23 25 0 0 0
SMALL
GASTEIGER

@<TRIPOS>ATOM
      1 C         139.1950  140.1755  166.1623 C.ar    1  UNL1        0.0397
      2 C         138.9397  138.8993  165.4166 C.ar    1  UNL1        0.1216
      3 N         138.3335  139.2507  164.0903 N.ar    1  UNL1       -0.1673
      4 N         138.2141  140.7441  164.0163 N.ar    1  UNL1       -0.2433
      5 C         138.7465  141.3157  165.2969 C.ar    1  UNL1        0.0971
      6 F         141.5893  140.6384  171.6444 F       1  UNL1       -0.2010
      7 C         140.9907  140.5227  170.2739 C.ar    1  UNL1        0.1740
      8 C         139.5408  140.1721  170.1159 C.ar    1  UNL1        0.0328
      9 C         138.9423  140.0564  168.7453 C.ar    1  UNL1        0.0026
     10 C         139.7935  140.2912  167.5329 C.ar    1  UNL1        0.0062
     11 C         141.2434  140.6418  167.6909 C.ar    1  UNL1        0.0395
     12 C         141.8420  140.7575  169.0614 C.ar    1  UNL1        0.1715
     13 O         143.2919  141.1080  169.2194 O.3     1  UNL1       -0.4213
     14 C         143.6838  142.4341  169.8008 C.3     1  UNL1        0.5087
     15 F         142.6314  143.4551  170.1166 F       1  UNL1       -0.1550
     16 F         145.1283  142.7391  170.0663 F       1  UNL1       -0.1550
     17 C         137.6597  141.5283  162.8641 C.3     1  UNL1        0.1722
     18 C         138.2555  142.8575  162.5057 C.ar    1  UNL1        0.0777
     19 C         139.6586  143.0959  162.0321 C.ar    1  UNL1        0.0385
     20 C         139.8230  144.5673  161.7916 C.ar    1  UNL1        0.1211
     21 N         138.5214  145.2383  162.1165 N.ar    1  UNL1       -0.1713
     22 N         137.5526  144.1816  162.5578 N.ar    1  UNL1       -0.2778
     23 H         136.6193  144.3309  162.8333 H       1  UNL1        0.1886
@<TRIPOS>BOND
     1     6     7    1
     2     7     8   ar
     3     8     9   ar
     4     9    10   ar
     5    10     1    1
     6     1     2   ar
     7     2     3   ar
     8     3     4   ar
     9     4    17    1
    10    17    18    1
    11    18    19   ar
    12    19    20   ar
    13    20    21   ar
    14    21    22   ar
    15     4     5   ar
    16    10    11   ar
    17    11    12   ar
    18    12    13    1
    19    13    14    1
    20    14    15    1
    21    14    16    1
    22    12     7   ar
    23     5     1   ar
    24    22    18   ar
    25    22    23    1
@<TRIPOS>MOLECULE
*****
 23 25 0 0 0
SMALL
GASTEIGER

@<TRIPOS>ATOM
      1 C         139.3947  141.8467  165.5035 C.ar    1  UNL1        0.0397
      2 C         138.5880  140.6059  165.2596 C.ar    1  UNL1        0.1216
      3 N         138.7809  139.6897  166.4315 N.ar    1  UNL1       -0.1673
      4 N         139.7069  140.3643  167.3997 N.ar    1  UNL1       -0.2433
      5 C         140.0862  141.6974  166.8262 C.ar    1  UNL1        0.0971
      6 F         139.7866  146.5769  161.8330 F       1  UNL1       -0.2010
      7 C         139.6886  145.3943  162.7506 C.ar    1  UNL1        0.1740
      8 C         138.3780  144.6854  162.9231 C.ar    1  UNL1        0.0328
      9 C         138.2801  143.5028  163.8407 C.ar    1  UNL1        0.0026
     10 C         139.4926  143.0293  164.5859 C.ar    1  UNL1        0.0062
     11 C         140.8032  143.7382  164.4134 C.ar    1  UNL1        0.0395
     12 C         140.9012  144.9208  163.4958 C.ar    1  UNL1        0.1715
     13 O         142.2118  145.6297  163.3234 O.3     1  UNL1       -0.4213
     14 C         143.4989  144.8854  163.5220 C.3     1  UNL1        0.5087
     15 F         144.0465  144.6898  164.9047 F       1  UNL1       -0.1550
     16 F         144.2384  144.3367  162.3379 F       1  UNL1       -0.1550
     17 C         140.1719  139.8042  168.7112 C.3     1  UNL1        0.1722
     18 C         140.6220  140.7279  169.8040 C.ar    1  UNL1        0.0777
     19 C         142.0124  141.2577  169.9938 C.ar    1  UNL1        0.0385
     20 C         142.0104  142.1412  171.2059 C.ar    1  UNL1        0.1211
     21 N         140.6186  142.1576  171.7653 N.ar    1  UNL1       -0.1713
     22 N         139.7606  141.2841  170.8988 N.ar    1  UNL1       -0.2778
     23 H         138.8006  141.1069  171.0263 H       1  UNL1        0.1886
@<TRIPOS>BOND
     1     6     7    1
     2     7     8   ar
     3     8     9   ar
     4     9    10   ar
     5    10     1    1
     6     1     2   ar
     7     2     3   ar
     8     3     4   ar
     9     4    17    1
    10    17    18    1
    11    18    19   ar
    12    19    20   ar
    13    20    21   ar
    14    21    22   ar
    15     4     5   ar
    16    10    11   ar
    17    11    12   ar
    18    12    13    1
    19    13    14    1
    20    14    15    1
    21    14    16    1
    22    12     7   ar
    23     5     1   ar
    24    22    18   ar
    25    22    23    1
@<TRIPOS>MOLECULE
*****
 23 25 0 0 0
SMALL
GASTEIGER

@<TRIPOS>ATOM
      1 C         139.5901  140.2902  165.7291 C.ar    1  UNL1        0.0397
      2 C         138.9838  139.0975  165.0509 C.ar    1  UNL1        0.1216
      3 N         138.1647  139.5886  163.8942 N.ar    1  UNL1       -0.1673
      4 N         138.2648  141.0848  163.8575 N.ar    1  UNL1       -0.2433
      5 C         139.1458  141.5184  164.9915 C.ar    1  UNL1        0.0971
      6 F         143.1651  140.1692  170.5462 F       1  UNL1       -0.2010
      7 C         142.2714  140.1995  169.3419 C.ar    1  UNL1        0.1740
      8 C         142.6815  139.4900  168.0856 C.ar    1  UNL1        0.0328
      9 C         141.7877  139.5203  166.8813 C.ar    1  UNL1        0.0026
     10 C         140.4839  140.2599  166.9334 C.ar    1  UNL1        0.0062
     11 C         140.0737  140.9694  168.1897 C.ar    1  UNL1        0.0395
     12 C         140.9675  140.9391  169.3940 C.ar    1  UNL1        0.1715
     13 O         140.5573  141.6486  170.6504 O.3     1  UNL1       -0.4213
     14 C         140.0435  143.0563  170.5832 C.3     1  UNL1        0.5087
     15 F         138.9026  143.4809  171.4596 F       1  UNL1       -0.1550
     16 F         140.6705  144.0393  169.6395 F       1  UNL1       -0.1550
     17 C         137.6006  141.9887  162.8616 C.3     1  UNL1        0.1722
     18 C         138.2828  143.2502  162.4219 C.ar    1  UNL1        0.0777
     19 C         139.6734  143.3539  161.8691 C.ar    1  UNL1        0.0385
     20 C         139.9442  144.7972  161.5633 C.ar    1  UNL1        0.1211
     21 N         138.7210  145.5855  161.9272 N.ar    1  UNL1       -0.1713
     22 N         137.6943  144.6294  162.4578 N.ar    1  UNL1       -0.2778
     23 H         136.7924  144.8656  162.7741 H       1  UNL1        0.1886
@<TRIPOS>BOND
     1     6     7    1
     2     7     8   ar
     3     8     9   ar
     4     9    10   ar
     5    10     1    1
     6     1     2   ar
     7     2     3   ar
     8     3     4   ar
     9     4    17    1
    10    17    18    1
    11    18    19   ar
    12    19    20   ar
    13    20    21   ar
    14    21    22   ar
    15     4     5   ar
    16    10    11   ar
    17    11    12   ar
    18    12    13    1
    19    13    14    1
    20    14    15    1
    21    14    16    1
    22    12     7   ar
    23     5     1   ar
    24    22    18   ar
    25    22    23    1
@<TRIPOS>MOLECULE
*****
 23 25 0 0 0
SMALL
GASTEIGER

@<TRIPOS>ATOM
      1 C         139.1932  143.2013  164.6910 C.ar    1  UNL1        0.0397
      2 C         137.7873  143.5324  164.2864 C.ar    1  UNL1        0.1216
      3 N         137.8499  144.5060  163.1470 N.ar    1  UNL1       -0.1673
      4 N         139.2946  144.7765  162.8474 N.ar    1  UNL1       -0.2433
      5 C         140.1247  143.9701  163.8016 C.ar    1  UNL1        0.0971
      6 F         140.8072  139.4583  169.0939 F       1  UNL1       -0.2010
      7 C         140.4037  140.3940  167.9932 C.ar    1  UNL1        0.1740
      8 C         139.4642  139.9291  166.9203 C.ar    1  UNL1        0.0328
      9 C         139.0607  140.8649  165.8196 C.ar    1  UNL1        0.0026
     10 C         139.5967  142.2655  165.7917 C.ar    1  UNL1        0.0062
     11 C         140.5362  142.7304  166.8646 C.ar    1  UNL1        0.0395
     12 C         140.9397  141.7947  167.9653 C.ar    1  UNL1        0.1715
     13 O         141.8793  142.2597  169.0383 O.3     1  UNL1       -0.4213
     14 C         143.3385  142.4293  168.7354 C.3     1  UNL1        0.5087
     15 F         144.3522  142.3022  169.8337 F       1  UNL1       -0.1550
     16 F         143.7842  142.7259  167.3341 F       1  UNL1       -0.1550
     17 C         139.8173  145.6925  161.7808 C.3     1  UNL1        0.1722
     18 C         140.4991  145.1239  160.5717 C.ar    1  UNL1        0.0777
     19 C         139.9621  144.0397  159.6850 C.ar    1  UNL1        0.0385
     20 C         140.9687  143.7853  158.6024 C.ar    1  UNL1        0.1211
     21 N         142.1278  144.7122  158.8200 N.ar    1  UNL1       -0.1713
     22 N         141.8375  145.5395  160.0371 N.ar    1  UNL1       -0.2778
     23 H         142.4228  146.2334  160.4182 H       1  UNL1        0.1886
@<TRIPOS>BOND
     1     6     7    1
     2     7     8   ar
     3     8     9   ar
     4     9    10   ar
     5    10     1    1
     6     1     2   ar
     7     2     3   ar
     8     3     4   ar
     9     4    17    1
    10    17    18    1
    11    18    19   ar
    12    19    20   ar
    13    20    21   ar
    14    21    22   ar
    15     4     5   ar
    16    10    11   ar
    17    11    12   ar
    18    12    13    1
    19    13    14    1
    20    14    15    1
    21    14    16    1
    22    12     7   ar
    23     5     1   ar
    24    22    18   ar
    25    22    23    1
@<TRIPOS>MOLECULE
*****
 23 25 0 0 0
SMALL
GASTEIGER

@<TRIPOS>ATOM
      1 C         138.6872  139.2196  166.0175 C.ar    1  UNL1        0.0397
      2 C         137.6440  138.5086  166.8277 C.ar    1  UNL1        0.1216
      3 N         137.8318  138.8934  168.2653 N.ar    1  UNL1       -0.1673
      4 N         138.9910  139.8422  168.3436 N.ar    1  UNL1       -0.2433
      5 C         139.5196  140.0437  166.9544 C.ar    1  UNL1        0.0971
      6 F         139.4040  138.8343  160.0730 F       1  UNL1       -0.2010
      7 C         139.2248  138.9306  161.5591 C.ar    1  UNL1        0.1740
      8 C         138.1671  139.8277  162.1304 C.ar    1  UNL1        0.0328
      9 C         137.9879  139.9240  163.6165 C.ar    1  UNL1        0.0026
     10 C         138.8664  139.1232  164.5314 C.ar    1  UNL1        0.0062
     11 C         139.9241  138.2261  163.9601 C.ar    1  UNL1        0.0395
     12 C         140.1033  138.1298  162.4739 C.ar    1  UNL1        0.1715
     13 O         141.1611  137.2327  161.9026 O.3     1  UNL1       -0.4213
     14 C         142.4346  137.8195  161.3698 C.3     1  UNL1        0.5087
     15 F         143.6226  137.9772  162.2718 F       1  UNL1       -0.1550
     16 F         142.5200  138.2485  159.9350 F       1  UNL1       -0.1550
     17 C         139.5274  140.4778  169.5919 C.3     1  UNL1        0.1722
     18 C         141.0045  140.4888  169.8529 C.ar    1  UNL1        0.0777
     19 C         141.9434  141.6208  169.5582 C.ar    1  UNL1        0.0385
     20 C         143.3212  141.2014  169.9775 C.ar    1  UNL1        0.1211
     21 N         143.2337  139.8101  170.5313 N.ar    1  UNL1       -0.1713
     22 N         141.8020  139.3698  170.4543 N.ar    1  UNL1       -0.2778
     23 H         141.4478  138.4991  170.7471 H       1  UNL1        0.1886
@<TRIPOS>BOND
     1     6     7    1
     2     7     8   ar
     3     8     9   ar
     4     9    10   ar
     5    10     1    1
     6     1     2   ar
     7     2     3   ar
     8     3     4   ar
     9     4    17    1
    10    17    18    1
    11    18    19   ar
    12    19    20   ar
    13    20    21   ar
    14    21    22   ar
    15     4     5   ar
    16    10    11   ar
    17    11    12   ar
    18    12    13    1
    19    13    14    1
    20    14    15    1
    21    14    16    1
    22    12     7   ar
    23     5     1   ar
    24    22    18   ar
    25    22    23    1
@<TRIPOS>MOLECULE
*****
 23 25 0 0 0
SMALL
GASTEIGER

@<TRIPOS>ATOM
      1 C         141.8349  141.6434  165.6075 C.ar    1  UNL1        0.0397
      2 C         142.9730  141.9733  166.5271 C.ar    1  UNL1        0.1216
      3 N         143.9086  142.8901  165.7964 N.ar    1  UNL1       -0.1673
      4 N         143.3488  143.1269  164.4251 N.ar    1  UNL1       -0.2433
      5 C         142.0671  142.3563  164.3084 C.ar    1  UNL1        0.0971
      6 F         137.1721  138.0949  166.8985 F       1  UNL1       -0.2010
      7 C         138.3378  138.9820  166.5757 C.ar    1  UNL1        0.1740
      8 C         138.7915  139.1368  165.1545 C.ar    1  UNL1        0.0328
      9 C         139.9572  140.0240  164.8317 C.ar    1  UNL1        0.0026
     10 C         140.6692  140.7563  165.9302 C.ar    1  UNL1        0.0062
     11 C         140.2154  140.6014  167.3515 C.ar    1  UNL1        0.0395
     12 C         139.0497  139.7143  167.6743 C.ar    1  UNL1        0.1715
     13 O         138.5960  139.5595  169.0957 O.3     1  UNL1       -0.4213
     14 C         139.2448  140.3651  170.1820 C.3     1  UNL1        0.5087
     15 F         138.9711  141.8359  170.2904 F       1  UNL1       -0.1550
     16 F         140.1674  139.6998  171.1599 F       1  UNL1       -0.1550
     17 C         143.9627  143.9837  163.3580 C.3     1  UNL1        0.1722
     18 C         143.4668  143.8926  161.9452 C.ar    1  UNL1        0.0777
     19 C         143.8866  142.8738  160.9275 C.ar    1  UNL1        0.0385
     20 C         143.1433  143.1557  159.6555 C.ar    1  UNL1        0.1211
     21 N         142.2641  144.3488  159.8871 N.ar    1  UNL1       -0.1713
     22 N         142.4641  144.8041  161.3022 N.ar    1  UNL1       -0.2778
     23 H         142.0159  145.5673  161.7333 H       1  UNL1        0.1886
@<TRIPOS>BOND
     1     6     7    1
     2     7     8   ar
     3     8     9   ar
     4     9    10   ar
     5    10     1    1
     6     1     2   ar
     7     2     3   ar
     8     3     4   ar
     9     4    17    1
    10    17    18    1
    11    18    19   ar
    12    19    20   ar
    13    20    21   ar
    14    21    22   ar
    15     4     5   ar
    16    10    11   ar
    17    11    12   ar
    18    12    13    1
    19    13    14    1
    20    14    15    1
    21    14    16    1
    22    12     7   ar
    23     5     1   ar
    24    22    18   ar
    25    22    23    1
@<TRIPOS>MOLECULE
*****
 23 25 0 0 0
SMALL
GASTEIGER

@<TRIPOS>ATOM
      1 C         138.7573  141.4292  163.1307 C.ar    1  UNL1        0.0397
      2 C         137.6157  142.1690  162.4987 C.ar    1  UNL1        0.1216
      3 N         138.1775  143.3542  161.7710 N.ar    1  UNL1       -0.1673
      4 N         139.6664  143.3470  161.9532 N.ar    1  UNL1       -0.2433
      5 C         140.0247  142.1572  162.7936 C.ar    1  UNL1        0.0971
      6 F         138.3292  136.4349  166.4283 F       1  UNL1       -0.2010
      7 C         138.4362  137.6835  165.6039 C.ar    1  UNL1        0.1740
      8 C         138.6470  137.5880  164.1219 C.ar    1  UNL1        0.0328
      9 C         138.7540  138.8365  163.2975 C.ar    1  UNL1        0.0026
     10 C         138.6502  140.1807  163.9551 C.ar    1  UNL1        0.0062
     11 C         138.4394  140.2762  165.4371 C.ar    1  UNL1        0.0395
     12 C         138.3324  139.0276  166.2615 C.ar    1  UNL1        0.1715
     13 O         138.1216  139.1233  167.7436 O.3     1  UNL1       -0.4213
     14 C         139.0856  139.9011  168.5896 C.3     1  UNL1        0.5087
     15 F         140.4913  140.1216  168.1150 F       1  UNL1       -0.1550
     16 F         138.6438  140.4584  169.9104 F       1  UNL1       -0.1550
     17 C         140.6281  144.3528  161.3934 C.3     1  UNL1        0.1722
     18 C         142.0881  144.2598  161.7249 C.ar    1  UNL1        0.0777
     19 C         143.0156  143.1530  161.3191 C.ar    1  UNL1        0.0385
     20 C         144.3776  143.4664  161.8637 C.ar    1  UNL1        0.1211
     21 N         144.2919  144.7670  162.6062 N.ar    1  UNL1       -0.1713
     22 N         142.8769  145.2573  162.5204 N.ar    1  UNL1       -0.2778
     23 H         142.5273  146.0879  162.9166 H       1  UNL1        0.1886
@<TRIPOS>BOND
     1     6     7    1
     2     7     8   ar
     3     8     9   ar
     4     9    10   ar
     5    10     1    1
     6     1     2   ar
     7     2     3   ar
     8     3     4   ar
     9     4    17    1
    10    17    18    1
    11    18    19   ar
    12    19    20   ar
    13    20    21   ar
    14    21    22   ar
    15     4     5   ar
    16    10    11   ar
    17    11    12   ar
    18    12    13    1
    19    13    14    1
    20    14    15    1
    21    14    16    1
    22    12     7   ar
    23     5     1   ar
    24    22    18   ar
    25    22    23    1
