@<TRIPOS>MOLECULE
*****
 34 38 0 0 0
SMALL
GASTEIGER

@<TRIPOS>ATOM
      1 C         142.8773  140.2126  164.9806 C.3     1  UNL1        0.1531
      2 C         141.9909  139.4379  164.0510 C.3     1  UNL1        0.1067
      3 N         142.3209  139.3616  162.5898 N.3     1  UNL1       -0.2665
      4 C         141.4345  138.5868  161.6601 C.3     1  UNL1        0.0940
      5 C         141.7645  138.5105  160.1989 C.3     1  UNL1        0.1107
      6 N         142.9809  139.2089  159.6672 N.am    1  UNL1       -0.2763
      7 C         143.3109  139.1326  158.2059 C.2     1  UNL1        0.2318
      8 O         144.5273  139.8310  157.6743 O.2     1  UNL1       -0.2744
      9 C         143.8673  139.9836  160.5968 C.3     1  UNL1        0.1119
     10 C         143.5373  140.0600  162.0581 C.3     1  UNL1        0.1075
     11 C         144.4236  140.8347  162.9877 C.3     1  UNL1        0.1601
     12 O         144.0936  140.9110  164.4489 O.3     1  UNL1       -0.3489
     13 C         141.4966  142.6376  166.0820 C.3     1  UNL1        0.0316
     14 C         141.8570  141.5014  166.9925 C.ar    1  UNL1       -0.0117
     15 C         142.5473  140.2889  166.4419 C.ar    1  UNL1        0.0027
     16 C         142.9076  139.1527  167.3525 C.ar    1  UNL1        0.0001
     17 C         142.5777  139.2290  168.8137 C.ar    1  UNL1        0.0301
     18 C         141.8873  140.4415  169.3644 C.ar    1  UNL1        0.1493
     19 F         141.5574  140.5178  170.8257 F       1  UNL1       -0.2035
     20 C         141.5270  141.5778  168.4538 C.ar    1  UNL1        0.0916
     21 C         140.8367  142.7903  169.0045 C.1     1  UNL1        0.1024
     22 N         140.1464  144.0028  169.5552 N.1     1  UNL1       -0.1908
     23 C         142.4245  138.3579  157.2764 C.3     1  UNL1        0.1309
     24 C         142.7996  136.9633  156.8708 C.ar    1  UNL1        0.0683
     25 C         142.9721  136.6250  155.4196 C.ar    1  UNL1        0.0168
     26 C         143.3472  135.2305  155.0140 C.ar    1  UNL1        0.0221
     27 C         143.5498  134.1742  156.0596 C.ar    1  UNL1        0.1053
     28 C         143.3773  134.5124  157.5107 C.ar    1  UNL1        0.1176
     29 N         143.0022  135.9070  157.9163 N.ar    1  UNL1       -0.2461
     30 N         143.9249  132.7797  155.6540 N.ar    1  UNL1       -0.1871
     31 C         144.9313  131.9029  156.3385 C.ar    1  UNL1        0.2259
     32 N         144.9878  130.5983  155.6002 N.ar    1  UNL1       -0.1045
     33 N         144.0163  130.6688  154.4594 N.ar    1  UNL1       -0.0222
     34 N         143.3594  132.0169  154.4927 N.ar    1  UNL1       -0.0384
@<TRIPOS>BOND
     1    13    14    1
     2    14    15   ar
     3     1    15    1
     4     1     2    1
     5     2     3    1
     6     3     4    1
     7     4     5    1
     8     5     6    1
     9     6     7   am
    10     7     8    2
    11     7    23    1
    12    23    24    1
    13    24    25   ar
    14    25    26   ar
    15    26    27   ar
    16    27    30    1
    17    30    31   ar
    18    31    32   ar
    19    32    33   ar
    20    33    34   ar
    21    27    28   ar
    22    28    29   ar
    23     6     9    1
    24    10     9    1
    25    10    11    1
    26    11    12    1
    27    15    16   ar
    28    16    17   ar
    29    17    18   ar
    30    18    19    1
    31    18    20   ar
    32    20    21    1
    33    21    22    3
    34    20    14   ar
    35    12     1    1
    36    10     3    1
    37    29    24   ar
    38    34    30   ar
@<TRIPOS>MOLECULE
*****
 34 38 0 0 0
SMALL
GASTEIGER

@<TRIPOS>ATOM
      1 C         138.5003  141.1757  157.6605 C.3     1  UNL1        0.1531
      2 C         137.7511  141.0447  158.9533 C.3     1  UNL1        0.1067
      3 N         138.2951  140.1793  160.0510 N.3     1  UNL1       -0.2665
      4 C         137.5459  140.0484  161.3440 C.3     1  UNL1        0.0940
      5 C         138.0899  139.1829  162.4417 C.3     1  UNL1        0.1107
      6 N         139.3831  138.4484  162.2466 N.am    1  UNL1       -0.2763
      7 C         139.9270  137.5829  163.3444 C.2     1  UNL1        0.2318
      8 O         141.2203  136.8484  163.1493 O.2     1  UNL1       -0.2744
      9 C         140.1323  138.5793  160.9537 C.3     1  UNL1        0.1119
     10 C         139.5883  139.4448  159.8559 C.3     1  UNL1        0.1075
     11 C         140.3375  139.5757  158.5631 C.3     1  UNL1        0.1601
     12 O         139.7935  140.4411  157.4654 O.3     1  UNL1       -0.3489
     13 C         139.4732  143.9968  157.3528 C.3     1  UNL1        0.0316
     14 C         138.4428  143.4517  156.4089 C.ar    1  UNL1       -0.0117
     15 C         137.9563  142.0411  156.5627 C.ar    1  UNL1        0.0027
     16 C         136.9259  141.4960  155.6187 C.ar    1  UNL1        0.0001
     17 C         136.3819  142.3614  154.5210 C.ar    1  UNL1        0.0301
     18 C         136.8684  143.7720  154.3671 C.ar    1  UNL1        0.1493
     19 F         136.3244  144.6374  153.2693 F       1  UNL1       -0.2035
     20 C         137.8988  144.3171  155.3110 C.ar    1  UNL1        0.0916
     21 C         138.3853  145.7277  155.1572 C.1     1  UNL1        0.1024
     22 N         138.8717  147.1382  155.0034 N.1     1  UNL1       -0.1908
     23 C         139.1778  137.4520  164.6372 C.3     1  UNL1        0.1309
     24 C         139.3804  138.4625  165.7270 C.ar    1  UNL1        0.0683
     25 C         138.3174  138.6696  166.7649 C.ar    1  UNL1        0.0168
     26 C         138.5199  139.6801  167.8548 C.ar    1  UNL1        0.0221
     27 C         139.7855  140.4836  167.9068 C.ar    1  UNL1        0.1053
     28 C         140.8486  140.2765  166.8690 C.ar    1  UNL1        0.1176
     29 N         140.6460  139.2660  165.7791 N.ar    1  UNL1       -0.2461
     30 N         139.9881  141.4941  168.9966 N.ar    1  UNL1       -0.1871
     31 C         140.5751  142.8645  168.8304 C.ar    1  UNL1        0.2259
     32 N         140.5890  143.5290  170.1751 N.ar    1  UNL1       -0.1045
     33 N         140.0107  142.5693  171.1725 N.ar    1  UNL1       -0.0222
     34 N         139.6393  141.3117  170.4441 N.ar    1  UNL1       -0.0384
@<TRIPOS>BOND
     1    13    14    1
     2    14    15   ar
     3     1    15    1
     4     1     2    1
     5     2     3    1
     6     3     4    1
     7     4     5    1
     8     5     6    1
     9     6     7   am
    10     7     8    2
    11     7    23    1
    12    23    24    1
    13    24    25   ar
    14    25    26   ar
    15    26    27   ar
    16    27    30    1
    17    30    31   ar
    18    31    32   ar
    19    32    33   ar
    20    33    34   ar
    21    27    28   ar
    22    28    29   ar
    23     6     9    1
    24    10     9    1
    25    10    11    1
    26    11    12    1
    27    15    16   ar
    28    16    17   ar
    29    17    18   ar
    30    18    19    1
    31    18    20   ar
    32    20    21    1
    33    21    22    3
    34    20    14   ar
    35    12     1    1
    36    10     3    1
    37    29    24   ar
    38    34    30   ar
@<TRIPOS>MOLECULE
*****
 34 38 0 0 0
SMALL
GASTEIGER

@<TRIPOS>ATOM
      1 C         142.4354  140.6398  163.7329 C.3     1  UNL1        0.1531
      2 C         141.5050  139.8429  162.8674 C.3     1  UNL1        0.1067
      3 N         141.8785  139.5378  161.4471 N.3     1  UNL1       -0.2665
      4 C         140.9481  138.7408  160.5815 C.3     1  UNL1        0.0940
      5 C         141.3217  138.4357  159.1611 C.3     1  UNL1        0.1107
      6 N         142.6256  138.9276  158.6064 N.am    1  UNL1       -0.2763
      7 C         142.9991  138.6225  157.1859 C.2     1  UNL1        0.2318
      8 O         144.3030  139.1145  156.6311 O.2     1  UNL1       -0.2744
      9 C         143.5560  139.7246  159.4719 C.3     1  UNL1        0.1119
     10 C         143.1824  140.0297  160.8923 C.3     1  UNL1        0.1075
     11 C         144.1128  140.8267  161.7578 C.3     1  UNL1        0.1601
     12 O         143.7393  141.1317  163.1781 O.3     1  UNL1       -0.3489
     13 C         143.2829  138.7899  165.9373 C.3     1  UNL1        0.0316
     14 C         142.4856  140.0200  166.2555 C.ar    1  UNL1       -0.0117
     15 C         142.0618  140.9449  165.1533 C.ar    1  UNL1        0.0027
     16 C         141.2646  142.1750  165.4715 C.ar    1  UNL1        0.0001
     17 C         140.8911  142.4802  166.8918 C.ar    1  UNL1        0.0301
     18 C         141.3148  141.5552  167.9940 C.ar    1  UNL1        0.1493
     19 F         140.9413  141.8603  169.4144 F       1  UNL1       -0.2035
     20 C         142.1121  140.3251  167.6759 C.ar    1  UNL1        0.0916
     21 C         142.5358  139.4001  168.7781 C.1     1  UNL1        0.1024
     22 N         142.9596  138.4751  169.8802 N.1     1  UNL1       -0.1908
     23 C         142.0687  137.8256  156.3204 C.3     1  UNL1        0.1309
     24 C         142.1671  136.3291  156.2930 C.ar    1  UNL1        0.0683
     25 C         141.2961  135.5371  155.3633 C.ar    1  UNL1        0.0168
     26 C         141.3944  134.0406  155.3359 C.ar    1  UNL1        0.0221
     27 C         142.3637  133.3360  156.2381 C.ar    1  UNL1        0.1053
     28 C         143.2347  134.1279  157.1677 C.ar    1  UNL1        0.1176
     29 N         143.1363  135.6245  157.1952 N.ar    1  UNL1       -0.2461
     30 N         142.4620  131.8395  156.2107 N.ar    1  UNL1       -0.1871
     31 C         143.3061  130.9946  157.1183 C.ar    1  UNL1        0.2259
     32 N         143.0993  129.5580  156.7393 N.ar    1  UNL1       -0.1045
     33 N         142.1274  129.5151  155.5975 N.ar    1  UNL1       -0.0222
     34 N         141.7336  130.9251  155.2707 N.ar    1  UNL1       -0.0384
@<TRIPOS>BOND
     1    13    14    1
     2    14    15   ar
     3     1    15    1
     4     1     2    1
     5     2     3    1
     6     3     4    1
     7     4     5    1
     8     5     6    1
     9     6     7   am
    10     7     8    2
    11     7    23    1
    12    23    24    1
    13    24    25   ar
    14    25    26   ar
    15    26    27   ar
    16    27    30    1
    17    30    31   ar
    18    31    32   ar
    19    32    33   ar
    20    33    34   ar
    21    27    28   ar
    22    28    29   ar
    23     6     9    1
    24    10     9    1
    25    10    11    1
    26    11    12    1
    27    15    16   ar
    28    16    17   ar
    29    17    18   ar
    30    18    19    1
    31    18    20   ar
    32    20    21    1
    33    21    22    3
    34    20    14   ar
    35    12     1    1
    36    10     3    1
    37    29    24   ar
    38    34    30   ar
@<TRIPOS>MOLECULE
*****
 34 38 0 0 0
SMALL
GASTEIGER

@<TRIPOS>ATOM
      1 C         142.3940  140.9853  165.8487 C.3     1  UNL1        0.1531
      2 C         142.6214  142.1043  164.8761 C.3     1  UNL1        0.1067
      3 N         142.9557  141.7988  163.4461 N.3     1  UNL1       -0.2665
      4 C         143.1832  142.9178  162.4734 C.3     1  UNL1        0.0940
      5 C         143.5175  142.6123  161.0434 C.3     1  UNL1        0.1107
      6 N         143.6243  141.1877  160.5861 N.am    1  UNL1       -0.2763
      7 C         143.9586  140.8822  159.1560 C.2     1  UNL1        0.2318
      8 O         144.0654  139.4576  158.6987 O.2     1  UNL1       -0.2744
      9 C         143.3968  140.0687  161.5587 C.3     1  UNL1        0.1119
     10 C         143.0625  140.3742  162.9887 C.3     1  UNL1        0.1075
     11 C         142.8351  139.2552  163.9613 C.3     1  UNL1        0.1601
     12 O         142.5008  139.5607  165.3913 O.3     1  UNL1       -0.3489
     13 C         139.8745  139.9019  167.0647 C.3     1  UNL1        0.0316
     14 C         140.8000  140.7491  167.8867 C.ar    1  UNL1       -0.0117
     15 C         142.0597  141.2908  167.2787 C.ar    1  UNL1        0.0027
     16 C         142.9851  142.1381  168.1007 C.ar    1  UNL1        0.0001
     17 C         142.6509  142.4436  169.5307 C.ar    1  UNL1        0.0301
     18 C         141.3911  141.9019  170.1387 C.ar    1  UNL1        0.1493
     19 F         141.0569  142.2074  171.5687 F       1  UNL1       -0.2035
     20 C         140.4657  141.0547  169.3167 C.ar    1  UNL1        0.0916
     21 C         139.2060  140.5130  169.9247 C.1     1  UNL1        0.1024
     22 N         137.9463  139.9713  170.5326 N.1     1  UNL1       -0.1908
     23 C         144.1860  142.0012  158.1834 C.3     1  UNL1        0.1309
     24 C         145.3991  141.9931  157.3012 C.ar    1  UNL1        0.0683
     25 C         146.6121  142.7869  157.6865 C.ar    1  UNL1        0.0168
     26 C         147.8252  142.7788  156.8043 C.ar    1  UNL1        0.0221
     27 C         147.8253  141.9769  155.5366 C.ar    1  UNL1        0.1053
     28 C         146.6123  141.1830  155.1513 C.ar    1  UNL1        0.1176
     29 N         145.3992  141.1911  156.0335 N.ar    1  UNL1       -0.2461
     30 N         149.0383  141.9687  154.6544 N.ar    1  UNL1       -0.1871
     31 C         149.0516  142.1945  153.1715 C.ar    1  UNL1        0.2259
     32 N         150.4726  142.0987  152.7007 N.ar    1  UNL1       -0.1045
     33 N         151.3376  141.8137  153.8927 N.ar    1  UNL1       -0.0222
     34 N         150.4512  141.7334  155.1001 N.ar    1  UNL1       -0.0384
@<TRIPOS>BOND
     1    13    14    1
     2    14    15   ar
     3     1    15    1
     4     1     2    1
     5     2     3    1
     6     3     4    1
     7     4     5    1
     8     5     6    1
     9     6     7   am
    10     7     8    2
    11     7    23    1
    12    23    24    1
    13    24    25   ar
    14    25    26   ar
    15    26    27   ar
    16    27    30    1
    17    30    31   ar
    18    31    32   ar
    19    32    33   ar
    20    33    34   ar
    21    27    28   ar
    22    28    29   ar
    23     6     9    1
    24    10     9    1
    25    10    11    1
    26    11    12    1
    27    15    16   ar
    28    16    17   ar
    29    17    18   ar
    30    18    19    1
    31    18    20   ar
    32    20    21    1
    33    21    22    3
    34    20    14   ar
    35    12     1    1
    36    10     3    1
    37    29    24   ar
    38    34    30   ar
@<TRIPOS>MOLECULE
*****
 34 38 0 0 0
SMALL
GASTEIGER

@<TRIPOS>ATOM
      1 C         143.8947  140.3876  158.2986 C.3     1  UNL1        0.1531
      2 C         143.0627  141.3079  159.1416 C.3     1  UNL1        0.1067
      3 N         142.1438  140.7442  160.1846 N.3     1  UNL1       -0.2665
      4 C         141.3118  141.6645  161.0276 C.3     1  UNL1        0.0940
      5 C         140.3929  141.1008  162.0706 C.3     1  UNL1        0.1107
      6 N         140.3060  139.6167  162.2705 N.am    1  UNL1       -0.2763
      7 C         139.3870  139.0530  163.3135 C.2     1  UNL1        0.2318
      8 O         139.3001  137.5689  163.5135 O.2     1  UNL1       -0.2744
      9 C         141.1380  138.6964  161.4275 C.3     1  UNL1        0.1119
     10 C         142.0569  139.2601  160.3845 C.3     1  UNL1        0.1075
     11 C         142.8889  138.3397  159.5415 C.3     1  UNL1        0.1601
     12 O         143.8078  138.9035  158.4986 O.3     1  UNL1       -0.3489
     13 C         143.8498  139.2884  155.5076 C.3     1  UNL1        0.0316
     14 C         144.7912  140.4017  155.8601 C.ar    1  UNL1       -0.0117
     15 C         144.8137  140.9513  157.2556 C.ar    1  UNL1        0.0027
     16 C         145.7552  142.0646  157.6082 C.ar    1  UNL1        0.0001
     17 C         146.6741  142.6283  156.5653 C.ar    1  UNL1        0.0301
     18 C         146.6516  142.0787  155.1697 C.ar    1  UNL1        0.1493
     19 F         147.5706  142.6424  154.1268 F       1  UNL1       -0.2035
     20 C         145.7102  140.9654  154.8171 C.ar    1  UNL1        0.0916
     21 C         145.6877  140.4159  153.4216 C.1     1  UNL1        0.1024
     22 N         145.6652  139.8663  152.0261 N.1     1  UNL1       -0.1908
     23 C         138.5550  139.9733  164.1565 C.3     1  UNL1        0.1309
     24 C         139.0268  140.3695  165.5241 C.ar    1  UNL1        0.0683
     25 C         138.7668  139.4709  166.6968 C.ar    1  UNL1        0.0168
     26 C         139.2387  139.8671  168.0644 C.ar    1  UNL1        0.0221
     27 C         139.9706  141.1618  168.2594 C.ar    1  UNL1        0.1053
     28 C         140.2306  142.0604  167.0868 C.ar    1  UNL1        0.1176
     29 N         139.7587  141.6642  165.7192 N.ar    1  UNL1       -0.2461
     30 N         140.4424  141.5580  169.6270 N.ar    1  UNL1       -0.1871
     31 C         141.8693  141.7591  170.0435 C.ar    1  UNL1        0.2259
     32 N         141.8790  142.1480  171.4922 N.ar    1  UNL1       -0.1045
     33 N         140.4580  142.1873  171.9711 N.ar    1  UNL1       -0.0222
     34 N         139.5702  141.8226  170.8184 N.ar    1  UNL1       -0.0384
@<TRIPOS>BOND
     1    13    14    1
     2    14    15   ar
     3     1    15    1
     4     1     2    1
     5     2     3    1
     6     3     4    1
     7     4     5    1
     8     5     6    1
     9     6     7   am
    10     7     8    2
    11     7    23    1
    12    23    24    1
    13    24    25   ar
    14    25    26   ar
    15    26    27   ar
    16    27    30    1
    17    30    31   ar
    18    31    32   ar
    19    32    33   ar
    20    33    34   ar
    21    27    28   ar
    22    28    29   ar
    23     6     9    1
    24    10     9    1
    25    10    11    1
    26    11    12    1
    27    15    16   ar
    28    16    17   ar
    29    17    18   ar
    30    18    19    1
    31    18    20   ar
    32    20    21    1
    33    21    22    3
    34    20    14   ar
    35    12     1    1
    36    10     3    1
    37    29    24   ar
    38    34    30   ar
@<TRIPOS>MOLECULE
*****
 34 38 0 0 0
SMALL
GASTEIGER

@<TRIPOS>ATOM
      1 C         142.1638  137.6126  157.2062 C.3     1  UNL1        0.1531
      2 C         140.9500  137.7256  158.0802 C.3     1  UNL1        0.1067
      3 N         140.9480  138.6747  159.2418 N.3     1  UNL1       -0.2665
      4 C         139.7342  138.7878  160.1159 C.3     1  UNL1        0.0940
      5 C         139.7323  139.7368  161.2774 C.3     1  UNL1        0.1107
      6 N         140.9441  140.5727  161.5650 N.am    1  UNL1       -0.2763
      7 C         140.9421  141.5218  162.7267 C.2     1  UNL1        0.2318
      8 O         142.1539  142.3577  163.0143 O.2     1  UNL1       -0.2744
      9 C         142.1579  140.4596  160.6910 C.3     1  UNL1        0.1119
     10 C         142.1598  139.5106  159.5294 C.3     1  UNL1        0.1075
     11 C         143.3736  139.3975  158.6554 C.3     1  UNL1        0.1601
     12 O         143.3756  138.4485  157.4938 O.3     1  UNL1       -0.3489
     13 C         143.3121  134.8589  157.5208 C.3     1  UNL1        0.0316
     14 C         142.7399  135.2867  156.2019 C.ar    1  UNL1       -0.0117
     15 C         142.1658  136.6635  156.0445 C.ar    1  UNL1        0.0027
     16 C         141.5935  137.0913  154.7256 C.ar    1  UNL1        0.0001
     17 C         141.5955  136.1423  153.5640 C.ar    1  UNL1        0.0301
     18 C         142.1697  134.7655  153.7213 C.ar    1  UNL1        0.1493
     19 F         142.1717  133.8165  152.5596 F       1  UNL1       -0.2035
     20 C         142.7419  134.3377  155.0402 C.ar    1  UNL1        0.0916
     21 C         143.3161  132.9609  155.1975 C.1     1  UNL1        0.1024
     22 N         143.8903  131.5842  155.3548 N.1     1  UNL1       -0.1908
     23 C         139.7283  141.6349  163.6007 C.3     1  UNL1        0.1309
     24 C         139.8747  141.6167  165.0934 C.ar    1  UNL1        0.0683
     25 C         140.3077  142.8557  165.8197 C.ar    1  UNL1        0.0168
     26 C         140.4540  142.8375  167.3124 C.ar    1  UNL1        0.0221
     27 C         140.1674  141.5804  168.0789 C.ar    1  UNL1        0.1053
     28 C         139.7345  140.3414  167.3526 C.ar    1  UNL1        0.1176
     29 N         139.5881  140.3595  165.8598 N.ar    1  UNL1       -0.2461
     30 N         140.3138  141.5622  169.5716 N.ar    1  UNL1       -0.1871
     31 C         140.6842  140.3725  170.4068 C.ar    1  UNL1        0.2259
     32 N         140.7148  140.8056  171.8426 N.ar    1  UNL1       -0.1045
     33 N         140.3633  142.2629  171.8948 N.ar    1  UNL1       -0.0222
     34 N         140.1155  142.7305  170.4913 N.ar    1  UNL1       -0.0384
@<TRIPOS>BOND
     1    13    14    1
     2    14    15   ar
     3     1    15    1
     4     1     2    1
     5     2     3    1
     6     3     4    1
     7     4     5    1
     8     5     6    1
     9     6     7   am
    10     7     8    2
    11     7    23    1
    12    23    24    1
    13    24    25   ar
    14    25    26   ar
    15    26    27   ar
    16    27    30    1
    17    30    31   ar
    18    31    32   ar
    19    32    33   ar
    20    33    34   ar
    21    27    28   ar
    22    28    29   ar
    23     6     9    1
    24    10     9    1
    25    10    11    1
    26    11    12    1
    27    15    16   ar
    28    16    17   ar
    29    17    18   ar
    30    18    19    1
    31    18    20   ar
    32    20    21    1
    33    21    22    3
    34    20    14   ar
    35    12     1    1
    36    10     3    1
    37    29    24   ar
    38    34    30   ar
@<TRIPOS>MOLECULE
*****
 34 38 0 0 0
SMALL
GASTEIGER

@<TRIPOS>ATOM
      1 C         141.2323  139.3731  164.6404 C.3     1  UNL1        0.1531
      2 C         141.4522  140.5732  163.7679 C.3     1  UNL1        0.1067
      3 N         141.8723  140.3948  162.3391 N.3     1  UNL1       -0.2665
      4 C         142.0922  141.5949  161.4665 C.3     1  UNL1        0.0940
      5 C         142.5124  141.4165  160.0377 C.3     1  UNL1        0.1107
      6 N         142.7126  140.0379  159.4813 N.am    1  UNL1       -0.2763
      7 C         143.1328  139.8595  158.0524 C.2     1  UNL1        0.2318
      8 O         143.3330  138.4810  157.4961 O.2     1  UNL1       -0.2744
      9 C         142.4927  138.8378  160.3539 C.3     1  UNL1        0.1119
     10 C         142.0726  139.0162  161.7828 C.3     1  UNL1        0.1075
     11 C         141.8527  137.8161  162.6553 C.3     1  UNL1        0.1601
     12 O         141.4325  137.9946  164.0841 O.3     1  UNL1       -0.3489
     13 C         143.2890  139.3392  166.8242 C.3     1  UNL1        0.0316
     14 C         141.8405  139.5346  167.1612 C.ar    1  UNL1       -0.0117
     15 C         140.8121  139.5515  166.0693 C.ar    1  UNL1        0.0027
     16 C         139.3636  139.7469  166.4063 C.ar    1  UNL1        0.0001
     17 C         138.9434  139.9253  167.8351 C.ar    1  UNL1        0.0301
     18 C         139.9718  139.9083  168.9271 C.ar    1  UNL1        0.1493
     19 F         139.5516  140.0867  170.3559 F       1  UNL1       -0.2035
     20 C         141.4203  139.7130  168.5901 C.ar    1  UNL1        0.0916
     21 C         142.4487  139.6960  169.6819 C.1     1  UNL1        0.1024
     22 N         143.4770  139.6791  170.7737 N.1     1  UNL1       -0.1908
     23 C         143.3527  141.0597  157.1799 C.3     1  UNL1        0.1309
     24 C         144.7099  141.3264  156.5996 C.ar    1  UNL1        0.0683
     25 C         145.1024  140.7038  155.2926 C.ar    1  UNL1        0.0168
     26 C         146.4596  140.9706  154.7123 C.ar    1  UNL1        0.0221
     27 C         147.4244  141.8600  155.4390 C.ar    1  UNL1        0.1053
     28 C         147.0320  142.4826  156.7460 C.ar    1  UNL1        0.1176
     29 N         145.6747  142.2158  157.3264 N.ar    1  UNL1       -0.2461
     30 N         148.7816  142.1268  154.8588 N.ar    1  UNL1       -0.1871
     31 C         149.0693  142.9130  153.6141 C.ar    1  UNL1        0.2259
     32 N         150.5550  142.9263  153.4074 N.ar    1  UNL1       -0.1045
     33 N         151.1854  142.1483  154.5242 N.ar    1  UNL1       -0.0222
     34 N         150.0894  141.6542  155.4212 N.ar    1  UNL1       -0.0384
@<TRIPOS>BOND
     1    13    14    1
     2    14    15   ar
     3     1    15    1
     4     1     2    1
     5     2     3    1
     6     3     4    1
     7     4     5    1
     8     5     6    1
     9     6     7   am
    10     7     8    2
    11     7    23    1
    12    23    24    1
    13    24    25   ar
    14    25    26   ar
    15    26    27   ar
    16    27    30    1
    17    30    31   ar
    18    31    32   ar
    19    32    33   ar
    20    33    34   ar
    21    27    28   ar
    22    28    29   ar
    23     6     9    1
    24    10     9    1
    25    10    11    1
    26    11    12    1
    27    15    16   ar
    28    16    17   ar
    29    17    18   ar
    30    18    19    1
    31    18    20   ar
    32    20    21    1
    33    21    22    3
    34    20    14   ar
    35    12     1    1
    36    10     3    1
    37    29    24   ar
    38    34    30   ar
@<TRIPOS>MOLECULE
*****
 34 38 0 0 0
SMALL
GASTEIGER

@<TRIPOS>ATOM
      1 C         140.4358  140.1666  165.7022 C.3     1  UNL1        0.1531
      2 C         139.4404  140.9791  164.9282 C.3     1  UNL1        0.1067
      3 N         139.2204  140.7050  163.4700 N.3     1  UNL1       -0.2665
      4 C         138.2250  141.5175  162.6960 C.3     1  UNL1        0.0940
      5 C         138.0049  141.2434  161.2378 C.3     1  UNL1        0.1107
      6 N         138.7803  140.1568  160.5535 N.am    1  UNL1       -0.2763
      7 C         138.5602  139.8828  159.0952 C.2     1  UNL1        0.2318
      8 O         139.3356  138.7962  158.4110 O.2     1  UNL1       -0.2744
      9 C         139.7757  139.3444  161.3275 C.3     1  UNL1        0.1119
     10 C         139.9958  139.6184  162.7858 C.3     1  UNL1        0.1075
     11 C         140.9912  138.8060  163.5597 C.3     1  UNL1        0.1601
     12 O         141.2112  139.0801  165.0179 O.3     1  UNL1       -0.3489
     13 C         142.9066  141.6115  166.6008 C.3     1  UNL1        0.0316
     14 C         141.8913  141.1631  167.6097 C.ar    1  UNL1       -0.0117
     15 C         140.6559  140.4407  167.1605 C.ar    1  UNL1        0.0027
     16 C         139.6406  139.9923  168.1694 C.ar    1  UNL1        0.0001
     17 C         139.8606  140.2663  169.6276 C.ar    1  UNL1        0.0301
     18 C         141.0960  140.9888  170.0770 C.ar    1  UNL1        0.1493
     19 F         141.3160  141.2628  171.5352 F       1  UNL1       -0.2035
     20 C         142.1114  141.4372  169.0680 C.ar    1  UNL1        0.0916
     21 C         143.3467  142.1597  169.5173 C.1     1  UNL1        0.1024
     22 N         144.5821  142.8821  169.9665 N.1     1  UNL1       -0.1908
     23 C         137.5648  140.6952  158.3213 C.3     1  UNL1        0.1309
     24 C         138.0007  141.9499  157.6244 C.ar    1  UNL1        0.0683
     25 C         137.2686  142.4227  156.4034 C.ar    1  UNL1        0.0168
     26 C         137.7045  143.6774  155.7065 C.ar    1  UNL1        0.0221
     27 C         138.8723  144.4594  156.2305 C.ar    1  UNL1        0.1053
     28 C         139.6044  143.9867  157.4514 C.ar    1  UNL1        0.1176
     29 N         139.1685  142.7319  158.1484 N.ar    1  UNL1       -0.2461
     30 N         139.3082  145.7141  155.5336 N.ar    1  UNL1       -0.1871
     31 C         140.1654  145.7879  154.3048 C.ar    1  UNL1        0.2259
     32 N         140.3503  147.2348  153.9549 N.ar    1  UNL1       -0.1045
     33 N         139.6075  148.0552  154.9674 N.ar    1  UNL1       -0.0222
     34 N         138.9634  147.1154  155.9431 N.ar    1  UNL1       -0.0384
@<TRIPOS>BOND
     1    13    14    1
     2    14    15   ar
     3     1    15    1
     4     1     2    1
     5     2     3    1
     6     3     4    1
     7     4     5    1
     8     5     6    1
     9     6     7   am
    10     7     8    2
    11     7    23    1
    12    23    24    1
    13    24    25   ar
    14    25    26   ar
    15    26    27   ar
    16    27    30    1
    17    30    31   ar
    18    31    32   ar
    19    32    33   ar
    20    33    34   ar
    21    27    28   ar
    22    28    29   ar
    23     6     9    1
    24    10     9    1
    25    10    11    1
    26    11    12    1
    27    15    16   ar
    28    16    17   ar
    29    17    18   ar
    30    18    19    1
    31    18    20   ar
    32    20    21    1
    33    21    22    3
    34    20    14   ar
    35    12     1    1
    36    10     3    1
    37    29    24   ar
    38    34    30   ar
@<TRIPOS>MOLECULE
*****
 34 38 0 0 0
SMALL
GASTEIGER

@<TRIPOS>ATOM
      1 C         142.1857  140.2113  157.5024 C.3     1  UNL1        0.1531
      2 C         142.2907  139.2805  158.6740 C.3     1  UNL1        0.1067
      3 N         141.3318  139.4067  159.8204 N.3     1  UNL1       -0.2665
      4 C         141.4367  138.4759  160.9920 C.3     1  UNL1        0.0940
      5 C         140.4777  138.6021  162.1385 C.3     1  UNL1        0.1107
      6 N         139.4137  139.6591  162.1133 N.am    1  UNL1       -0.2763
      7 C         138.4547  139.7853  163.2599 C.2     1  UNL1        0.2318
      8 O         137.3907  140.8423  163.2347 O.2     1  UNL1       -0.2744
      9 C         139.3087  140.5899  160.9418 C.3     1  UNL1        0.1119
     10 C         140.2677  140.4637  159.7953 C.3     1  UNL1        0.1075
     11 C         140.1627  141.3945  158.6237 C.3     1  UNL1        0.1601
     12 O         141.1217  141.2683  157.4773 O.3     1  UNL1       -0.3489
     13 C         144.8525  141.5805  157.6197 C.3     1  UNL1        0.0316
     14 C         144.4781  140.7697  156.4146 C.ar    1  UNL1       -0.0117
     15 C         143.1447  140.0851  156.3559 C.ar    1  UNL1        0.0027
     16 C         142.7703  139.2743  155.1507 C.ar    1  UNL1        0.0001
     17 C         143.7293  139.1481  154.0042 C.ar    1  UNL1        0.0301
     18 C         145.0627  139.8327  154.0629 C.ar    1  UNL1        0.1493
     19 F         146.0216  139.7065  152.9164 F       1  UNL1       -0.2035
     20 C         145.4371  140.6435  155.2681 C.ar    1  UNL1        0.0916
     21 C         146.7705  141.3281  155.3267 C.1     1  UNL1        0.1024
     22 N         148.1038  142.0127  155.3854 N.1     1  UNL1       -0.1908
     23 C         138.5597  138.8545  164.4314 C.3     1  UNL1        0.1309
     24 C         138.9949  139.3776  165.7682 C.ar    1  UNL1        0.0683
     25 C         138.1901  139.0640  166.9945 C.ar    1  UNL1        0.0168
     26 C         138.6252  139.5871  168.3313 C.ar    1  UNL1        0.0221
     27 C         139.8653  140.4238  168.4417 C.ar    1  UNL1        0.1053
     28 C         140.6702  140.7374  167.2155 C.ar    1  UNL1        0.1176
     29 N         140.2350  140.2143  165.8786 N.ar    1  UNL1       -0.2461
     30 N         140.3005  140.9468  169.7785 N.ar    1  UNL1       -0.1871
     31 C         141.4795  140.4666  170.5719 C.ar    1  UNL1        0.2259
     32 N         141.5408  141.2650  171.8404 N.ar    1  UNL1       -0.1045
     33 N         140.3997  142.2387  171.8309 N.ar    1  UNL1       -0.0222
     34 N         139.6332  142.0420  170.5566 N.ar    1  UNL1       -0.0384
@<TRIPOS>BOND
     1    13    14    1
     2    14    15   ar
     3     1    15    1
     4     1     2    1
     5     2     3    1
     6     3     4    1
     7     4     5    1
     8     5     6    1
     9     6     7   am
    10     7     8    2
    11     7    23    1
    12    23    24    1
    13    24    25   ar
    14    25    26   ar
    15    26    27   ar
    16    27    30    1
    17    30    31   ar
    18    31    32   ar
    19    32    33   ar
    20    33    34   ar
    21    27    28   ar
    22    28    29   ar
    23     6     9    1
    24    10     9    1
    25    10    11    1
    26    11    12    1
    27    15    16   ar
    28    16    17   ar
    29    17    18   ar
    30    18    19    1
    31    18    20   ar
    32    20    21    1
    33    21    22    3
    34    20    14   ar
    35    12     1    1
    36    10     3    1
    37    29    24   ar
    38    34    30   ar
