@<TRIPOS>MOLECULE
*****
 40 45 0 0 0
SMALL
GASTEIGER

@<TRIPOS>ATOM
      1 N         142.5661  140.3762  165.8084 N.3     1  UNL1       -0.2676
      2 C         141.4119  141.1600  165.2577 C.3     1  UNL1        0.0746
      3 C         141.4278  141.6141  163.8282 C.3     1  UNL1        0.0449
      4 C         142.5979  141.2845  162.9495 C.3     1  UNL1        0.1391
      5 C         143.7521  140.5007  163.5002 C.3     1  UNL1        0.0449
      6 C         143.7362  140.0465  164.9297 C.3     1  UNL1        0.0746
      7 C         143.6929  141.0314  161.9560 C.2     1  UNL1        0.2529
      8 O         144.9643  140.2796  162.2177 O.2     1  UNL1       -0.2724
      9 N         143.2933  141.6620  160.6549 N.am    1  UNL1       -0.1907
     10 C         141.9513  142.3049  160.8443 C.2     1  UNL1        0.3219
     11 O         141.1753  143.0502  159.7992 O.2     1  UNL1       -0.2512
     12 N         141.5215  142.0716  162.2624 N.am    1  UNL1       -0.2222
     13 C         140.2404  142.5426  162.8842 C.ar    1  UNL1        0.1453
     14 C         138.9973  141.7120  162.7617 C.ar    1  UNL1        0.0922
     15 C         137.7162  142.1831  163.3836 C.ar    1  UNL1        0.2259
     16 O         136.4732  141.3526  163.2610 O.3     1  UNL1       -0.4919
     17 N         137.6781  143.4848  164.1281 N.ar    1  UNL1       -0.1894
     18 C         138.9211  144.3154  164.2506 C.ar    1  UNL1        0.2027
     19 N         140.2022  143.8443  163.6287 N.ar    1  UNL1       -0.2084
     20 H         136.4970  140.5395  162.7960 H       1  UNL1        0.2938
     21 C         144.0949  141.6516  159.3871 C.ar    1  UNL1        0.0622
     22 C         143.8756  140.5712  158.3700 C.ar    1  UNL1        0.0154
     23 C         144.6772  140.5608  157.1023 C.ar    1  UNL1        0.0013
     24 C         145.6981  141.6307  156.8516 C.ar    1  UNL1        0.0001
     25 C         145.9174  142.7112  157.8688 C.ar    1  UNL1        0.0013
     26 C         145.1158  142.7216  159.1365 C.ar    1  UNL1        0.0154
     27 C         146.4997  141.6203  155.5838 C.ar    1  UNL1        0.0000
     28 C         145.8437  141.2571  154.2846 C.ar    1  UNL1        0.0000
     29 C         146.6453  141.2467  153.0169 C.ar    1  UNL1        0.0000
     30 C         148.1030  141.5995  153.0482 C.ar    1  UNL1        0.0000
     31 C         148.7590  141.9626  154.3474 C.ar    1  UNL1        0.0000
     32 C         147.9573  141.9730  155.6152 C.ar    1  UNL1        0.0000
     33 C         142.5503  139.9220  167.2380 C.3     1  UNL1        0.1183
     34 C         143.3923  142.4292  168.6539 C.3     1  UNL1        0.0323
     35 C         142.0460  141.8280  168.9300 C.ar    1  UNL1       -0.0069
     36 C         141.1208  142.4803  169.9140 C.ar    1  UNL1       -0.0015
     37 C         139.7746  141.8791  170.1900 C.ar    1  UNL1        0.0203
     38 C         139.3536  140.6255  169.4821 C.ar    1  UNL1        0.0985
     39 N         140.2788  139.9731  168.4980 N.ar    1  UNL1       -0.2471
     40 C         141.6251  140.5743  168.2220 C.ar    1  UNL1        0.0712
@<TRIPOS>BOND
     1    34    35    1
     2    35    36   ar
     3    36    37   ar
     4    37    38   ar
     5    38    39   ar
     6    39    40   ar
     7    40    33    1
     8    33     1    1
     9     1     2    1
    10     2     3    1
    11     3     4    1
    12     4     5    1
    13     5     6    1
    14     4     7    1
    15     7     8    2
    16     7     9   am
    17     9    21    1
    18    21    22   ar
    19    22    23   ar
    20    23    24   ar
    21    24    27    1
    22    27    28   ar
    23    28    29   ar
    24    29    30   ar
    25    30    31   ar
    26    31    32   ar
    27    24    25   ar
    28    25    26   ar
    29     9    10   am
    30    10    11    2
    31    10    12   am
    32    12    13    1
    33    13    14   ar
    34    14    15   ar
    35    15    16    1
    36    15    17   ar
    37    17    18   ar
    38    18    19   ar
    39    40    35   ar
    40     6     1    1
    41    26    21   ar
    42    19    13   ar
    43    12     4    1
    44    32    27   ar
    45    16    20    1
@<TRIPOS>MOLECULE
*****
 40 45 0 0 0
SMALL
GASTEIGER

@<TRIPOS>ATOM
      1 N         141.7161  139.6685  165.9639 N.3     1  UNL1       -0.2676
      2 C         141.0664  140.8982  165.4021 C.3     1  UNL1        0.0746
      3 C         140.7875  140.9937  163.9314 C.3     1  UNL1        0.0449
      4 C         141.1582  139.8594  163.0225 C.3     1  UNL1        0.1391
      5 C         141.8078  138.6297  163.5844 C.3     1  UNL1        0.0449
      6 C         142.0868  138.5342  165.0551 C.3     1  UNL1        0.0746
      7 C         141.4708  138.8113  161.9960 C.2     1  UNL1        0.2529
      8 O         142.1173  137.4838  162.2599 O.2     1  UNL1       -0.2724
      9 N         141.0234  139.3239  160.6590 N.am    1  UNL1       -0.1907
     10 C         140.4343  140.6888  160.8594 C.2     1  UNL1        0.3219
     11 O         139.8624  141.5683  159.7874 O.2     1  UNL1       -0.2512
     12 N         140.5176  141.0198  162.3201 N.am    1  UNL1       -0.2222
     13 C         140.0435  142.2883  162.9651 C.ar    1  UNL1        0.1453
     14 C         140.9608  143.4716  163.0564 C.ar    1  UNL1        0.0922
     15 C         140.4867  144.7400  163.7015 C.ar    1  UNL1        0.2259
     16 O         141.4040  145.9234  163.7927 O.3     1  UNL1       -0.4919
     17 N         139.0953  144.8253  164.2553 N.ar    1  UNL1       -0.1894
     18 C         138.1780  143.6420  164.1641 C.ar    1  UNL1        0.2027
     19 N         138.6521  142.3735  163.5190 N.ar    1  UNL1       -0.2084
     20 H         142.2731  145.8702  163.4468 H       1  UNL1        0.2938
     21 C         141.1440  138.5989  159.3514 C.ar    1  UNL1        0.0622
     22 C         139.9322  138.3981  158.4907 C.ar    1  UNL1        0.0154
     23 C         140.0528  137.6731  157.1831 C.ar    1  UNL1        0.0013
     24 C         141.3852  137.1490  156.7363 C.ar    1  UNL1        0.0001
     25 C         142.5971  137.3498  157.5970 C.ar    1  UNL1        0.0013
     26 C         142.4765  138.0748  158.9046 C.ar    1  UNL1        0.0154
     27 C         141.5058  136.4240  155.4287 C.ar    1  UNL1        0.0000
     28 C         141.4421  137.1875  154.1391 C.ar    1  UNL1        0.0000
     29 C         141.5627  136.4625  152.8315 C.ar    1  UNL1        0.0000
     30 C         141.7469  134.9739  152.8134 C.ar    1  UNL1        0.0000
     31 C         141.8106  134.2104  154.1030 C.ar    1  UNL1        0.0000
     32 C         141.6900  134.9354  155.4107 C.ar    1  UNL1        0.0000
     33 C         141.9951  139.5730  167.4347 C.3     1  UNL1        0.1183
     34 C         143.0783  142.2498  168.2481 C.3     1  UNL1        0.0323
     35 C         141.7724  141.7679  168.8069 C.ar    1  UNL1       -0.0069
     36 C         141.0081  142.6244  169.7724 C.ar    1  UNL1       -0.0015
     37 C         139.7022  142.1425  170.3313 C.ar    1  UNL1        0.0203
     38 C         139.1605  140.8042  169.9247 C.ar    1  UNL1        0.0985
     39 N         139.9248  139.9476  168.9591 N.ar    1  UNL1       -0.2471
     40 C         141.2308  140.4295  168.4002 C.ar    1  UNL1        0.0712
@<TRIPOS>BOND
     1    34    35    1
     2    35    36   ar
     3    36    37   ar
     4    37    38   ar
     5    38    39   ar
     6    39    40   ar
     7    40    33    1
     8    33     1    1
     9     1     2    1
    10     2     3    1
    11     3     4    1
    12     4     5    1
    13     5     6    1
    14     4     7    1
    15     7     8    2
    16     7     9   am
    17     9    21    1
    18    21    22   ar
    19    22    23   ar
    20    23    24   ar
    21    24    27    1
    22    27    28   ar
    23    28    29   ar
    24    29    30   ar
    25    30    31   ar
    26    31    32   ar
    27    24    25   ar
    28    25    26   ar
    29     9    10   am
    30    10    11    2
    31    10    12   am
    32    12    13    1
    33    13    14   ar
    34    14    15   ar
    35    15    16    1
    36    15    17   ar
    37    17    18   ar
    38    18    19   ar
    39    40    35   ar
    40     6     1    1
    41    26    21   ar
    42    19    13   ar
    43    12     4    1
    44    32    27   ar
    45    16    20    1
@<TRIPOS>MOLECULE
*****
 40 45 0 0 0
SMALL
GASTEIGER

@<TRIPOS>ATOM
      1 N         140.4171  140.1437  165.7019 N.3     1  UNL1       -0.2676
      2 C         141.0553  141.3467  165.0730 C.3     1  UNL1        0.0746
      3 C         141.4127  141.3307  163.6163 C.3     1  UNL1        0.0449
      4 C         141.1319  140.1117  162.7885 C.3     1  UNL1        0.1391
      5 C         140.4938  138.9087  163.4174 C.3     1  UNL1        0.0449
      6 C         140.1364  138.9247  164.8741 C.3     1  UNL1        0.0746
      7 C         140.9128  138.9710  161.8394 C.2     1  UNL1        0.2529
      8 O         140.2978  137.6460  162.1803 O.2     1  UNL1       -0.2724
      9 N         141.4167  139.3879  160.4894 N.am    1  UNL1       -0.1907
     10 C         141.9472  140.7863  160.6042 C.2     1  UNL1        0.3219
     11 O         142.5482  141.5952  159.4933 O.2     1  UNL1       -0.2512
     12 N         141.7713  141.2336  162.0251 N.am    1  UNL1       -0.2222
     13 C         142.1654  142.5684  162.5845 C.ar    1  UNL1        0.1453
     14 C         141.2479  143.7454  162.4335 C.ar    1  UNL1        0.0922
     15 C         141.6421  145.0802  162.9929 C.ar    1  UNL1        0.2259
     16 O         140.7247  146.2573  162.8418 O.3     1  UNL1       -0.4919
     17 N         142.9537  145.2380  163.7034 N.ar    1  UNL1       -0.1894
     18 C         143.8712  144.0609  163.8545 C.ar    1  UNL1        0.2027
     19 N         143.4770  142.7262  163.2951 N.ar    1  UNL1       -0.2084
     20 H         139.9054  146.1587  162.3980 H       1  UNL1        0.2938
     21 C         141.3940  138.5530  159.2434 C.ar    1  UNL1        0.0622
     22 C         140.1426  138.4669  158.4210 C.ar    1  UNL1        0.0154
     23 C         140.1199  137.6321  157.1751 C.ar    1  UNL1        0.0013
     24 C         141.3486  136.8834  156.7515 C.ar    1  UNL1        0.0001
     25 C         142.6001  136.9695  157.5739 C.ar    1  UNL1        0.0013
     26 C         142.6228  137.8043  158.8199 C.ar    1  UNL1        0.0154
     27 C         141.3259  136.0485  155.5055 C.ar    1  UNL1        0.0000
     28 C         140.6519  136.5648  154.2689 C.ar    1  UNL1        0.0000
     29 C         140.6292  135.7300  153.0229 C.ar    1  UNL1        0.0000
     30 C         141.2806  134.3787  153.0135 C.ar    1  UNL1        0.0000
     31 C         141.9546  133.8624  154.2500 C.ar    1  UNL1        0.0000
     32 C         141.9773  134.6974  155.4961 C.ar    1  UNL1        0.0000
     33 C         140.0597  140.1596  167.1587 C.3     1  UNL1        0.1183
     34 C         142.7079  139.1478  168.1400 C.3     1  UNL1        0.0323
     35 C         142.1910  140.4749  168.6107 C.ar    1  UNL1       -0.0069
     36 C         142.9981  141.2961  169.5720 C.ar    1  UNL1       -0.0015
     37 C         142.4811  142.6232  170.0427 C.ar    1  UNL1        0.0203
     38 C         141.1570  143.1291  169.5520 C.ar    1  UNL1        0.0985
     39 N         140.3498  142.3079  168.5906 N.ar    1  UNL1       -0.2471
     40 C         140.8668  140.9808  168.1200 C.ar    1  UNL1        0.0712
@<TRIPOS>BOND
     1    34    35    1
     2    35    36   ar
     3    36    37   ar
     4    37    38   ar
     5    38    39   ar
     6    39    40   ar
     7    40    33    1
     8    33     1    1
     9     1     2    1
    10     2     3    1
    11     3     4    1
    12     4     5    1
    13     5     6    1
    14     4     7    1
    15     7     8    2
    16     7     9   am
    17     9    21    1
    18    21    22   ar
    19    22    23   ar
    20    23    24   ar
    21    24    27    1
    22    27    28   ar
    23    28    29   ar
    24    29    30   ar
    25    30    31   ar
    26    31    32   ar
    27    24    25   ar
    28    25    26   ar
    29     9    10   am
    30    10    11    2
    31    10    12   am
    32    12    13    1
    33    13    14   ar
    34    14    15   ar
    35    15    16    1
    36    15    17   ar
    37    17    18   ar
    38    18    19   ar
    39    40    35   ar
    40     6     1    1
    41    26    21   ar
    42    19    13   ar
    43    12     4    1
    44    32    27   ar
    45    16    20    1
@<TRIPOS>MOLECULE
*****
 40 45 0 0 0
SMALL
GASTEIGER

@<TRIPOS>ATOM
      1 N         141.7962  139.2977  163.6894 N.3     1  UNL1       -0.2676
      2 C         141.2520  140.6790  163.4757 C.3     1  UNL1        0.0746
      3 C         141.7231  141.4989  162.3113 C.3     1  UNL1        0.0449
      4 C         142.7384  140.9374  161.3606 C.3     1  UNL1        0.1391
      5 C         143.2826  139.5560  161.5742 C.3     1  UNL1        0.0449
      6 C         142.8115  138.7362  162.7386 C.3     1  UNL1        0.0746
      7 C         143.7437  140.5118  160.3318 C.2     1  UNL1        0.2529
      8 O         144.4545  139.1916  160.2870 O.2     1  UNL1       -0.2724
      9 N         143.9136  141.6382  159.3558 N.am    1  UNL1       -0.1907
     10 C         143.0132  142.7599  159.7814 C.2     1  UNL1        0.3219
     11 O         142.8651  144.0825  159.0895 O.2     1  UNL1       -0.2512
     12 N         142.2869  142.3268  161.0203 N.am    1  UNL1       -0.2222
     13 C         141.2850  143.1402  161.7849 C.ar    1  UNL1        0.1453
     14 C         139.8233  143.0173  161.4717 C.ar    1  UNL1        0.0922
     15 C         138.8215  143.8308  162.2363 C.ar    1  UNL1        0.2259
     16 O         137.3597  143.7079  161.9231 O.3     1  UNL1       -0.4919
     17 N         139.2814  144.7672  163.3141 N.ar    1  UNL1       -0.1894
     18 C         140.7431  144.8901  163.6274 C.ar    1  UNL1        0.2027
     19 N         141.7449  144.0766  162.8627 N.ar    1  UNL1       -0.2084
     20 H         137.0724  143.1230  161.2498 H       1  UNL1        0.2938
     21 C         144.8239  141.6421  158.1637 C.ar    1  UNL1        0.0622
     22 C         144.6194  140.6466  157.0606 C.ar    1  UNL1        0.0154
     23 C         145.5298  140.6505  155.8685 C.ar    1  UNL1        0.0013
     24 C         146.6446  141.6500  155.7794 C.ar    1  UNL1        0.0001
     25 C         146.8491  142.6457  156.8826 C.ar    1  UNL1        0.0013
     26 C         145.9388  142.6417  158.0747 C.ar    1  UNL1        0.0154
     27 C         147.5549  141.6540  154.5873 C.ar    1  UNL1        0.0000
     28 C         146.9833  141.5235  153.2066 C.ar    1  UNL1        0.0000
     29 C         147.8936  141.5274  152.0145 C.ar    1  UNL1        0.0000
     30 C         149.3757  141.6619  152.2029 C.ar    1  UNL1        0.0000
     31 C         149.9474  141.7924  153.5836 C.ar    1  UNL1        0.0000
     32 C         149.0369  141.7885  154.7758 C.ar    1  UNL1        0.0000
     33 C         141.3251  138.4778  164.8538 C.3     1  UNL1        0.1183
     34 C         138.5748  139.2342  165.7833 C.3     1  UNL1        0.0323
     35 C         139.7622  139.4983  166.6610 C.ar    1  UNL1       -0.0069
     36 C         139.5744  140.1406  168.0034 C.ar    1  UNL1       -0.0015
     37 C         140.7618  140.4047  168.8812 C.ar    1  UNL1        0.0203
     38 C         142.1369  140.0266  168.4165 C.ar    1  UNL1        0.0985
     39 N         142.3247  139.3842  167.0740 N.ar    1  UNL1       -0.2471
     40 C         141.1373  139.1201  166.1963 C.ar    1  UNL1        0.0712
@<TRIPOS>BOND
     1    34    35    1
     2    35    36   ar
     3    36    37   ar
     4    37    38   ar
     5    38    39   ar
     6    39    40   ar
     7    40    33    1
     8    33     1    1
     9     1     2    1
    10     2     3    1
    11     3     4    1
    12     4     5    1
    13     5     6    1
    14     4     7    1
    15     7     8    2
    16     7     9   am
    17     9    21    1
    18    21    22   ar
    19    22    23   ar
    20    23    24   ar
    21    24    27    1
    22    27    28   ar
    23    28    29   ar
    24    29    30   ar
    25    30    31   ar
    26    31    32   ar
    27    24    25   ar
    28    25    26   ar
    29     9    10   am
    30    10    11    2
    31    10    12   am
    32    12    13    1
    33    13    14   ar
    34    14    15   ar
    35    15    16    1
    36    15    17   ar
    37    17    18   ar
    38    18    19   ar
    39    40    35   ar
    40     6     1    1
    41    26    21   ar
    42    19    13   ar
    43    12     4    1
    44    32    27   ar
    45    16    20    1
@<TRIPOS>MOLECULE
*****
 40 45 0 0 0
SMALL
GASTEIGER

@<TRIPOS>ATOM
      1 N         139.9163  145.3677  156.5025 N.3     1  UNL1       -0.2676
      2 C         139.2958  144.0037  156.4369 C.3     1  UNL1        0.0746
      3 C         139.2415  143.1446  157.6653 C.3     1  UNL1        0.0449
      4 C         139.8077  143.6495  158.9593 C.3     1  UNL1        0.1391
      5 C         140.4282  145.0136  159.0249 C.3     1  UNL1        0.0449
      6 C         140.4825  145.8726  157.7965 C.3     1  UNL1        0.0746
      7 C         140.3301  144.0176  160.3164 C.2     1  UNL1        0.2529
      8 O         140.9985  145.3093  160.6833 O.2     1  UNL1       -0.2724
      9 N         140.0668  142.8670  161.2421 N.am    1  UNL1       -0.1907
     10 C         139.3816  141.7879  160.4571 C.2     1  UNL1        0.3219
     11 O         138.9350  140.4586  160.9895 O.2     1  UNL1       -0.2512
     12 N         139.2215  142.2715  159.0463 N.am    1  UNL1       -0.2222
     13 C         138.5867  141.5108  157.9201 C.ar    1  UNL1        0.1453
     14 C         137.1363  141.7180  157.5987 C.ar    1  UNL1        0.0922
     15 C         136.5015  140.9572  156.4726 C.ar    1  UNL1        0.2259
     16 O         135.0511  141.1644  156.1512 O.3     1  UNL1       -0.4919
     17 N         137.3172  139.9892  155.6677 N.ar    1  UNL1       -0.1894
     18 C         138.7676  139.7820  155.9891 C.ar    1  UNL1        0.2027
     19 N         139.4023  140.5428  157.1153 N.ar    1  UNL1       -0.2084
     20 H         134.5416  141.7690  156.6539 H       1  UNL1        0.2938
     21 C         140.4255  142.8062  162.6973 C.ar    1  UNL1        0.0622
     22 C         141.4799  141.8501  163.1705 C.ar    1  UNL1        0.0154
     23 C         141.8387  141.7894  164.6256 C.ar    1  UNL1        0.0013
     24 C         141.1431  142.6847  165.6076 C.ar    1  UNL1        0.0001
     25 C         140.0886  143.6408  165.1345 C.ar    1  UNL1        0.0013
     26 C         139.7298  143.7016  163.6793 C.ar    1  UNL1        0.0154
     27 C         141.5019  142.6239  167.0628 C.ar    1  UNL1        0.0000
     28 C         142.8896  142.2336  167.4775 C.ar    1  UNL1        0.0000
     29 C         143.2484  142.1728  168.9327 C.ar    1  UNL1        0.0000
     30 C         142.2194  142.5024  169.9733 C.ar    1  UNL1        0.0000
     31 C         140.8317  142.8927  169.5586 C.ar    1  UNL1        0.0000
     32 C         140.4730  142.9534  168.1033 C.ar    1  UNL1        0.0000
     33 C         139.9706  146.2268  155.2740 C.3     1  UNL1        0.1183
     34 C         140.7070  148.1208  153.0670 C.3     1  UNL1        0.0323
     35 C         139.9095  148.6094  154.2397 C.ar    1  UNL1       -0.0069
     36 C         139.4802  150.0450  154.3089 C.ar    1  UNL1       -0.0015
     37 C         138.6826  150.5336  155.4816 C.ar    1  UNL1        0.0203
     38 C         138.3145  149.5867  156.5851 C.ar    1  UNL1        0.0985
     39 N         138.7438  148.1510  156.5159 N.ar    1  UNL1       -0.2471
     40 C         139.5413  147.6624  155.3432 C.ar    1  UNL1        0.0712
@<TRIPOS>BOND
     1    34    35    1
     2    35    36   ar
     3    36    37   ar
     4    37    38   ar
     5    38    39   ar
     6    39    40   ar
     7    40    33    1
     8    33     1    1
     9     1     2    1
    10     2     3    1
    11     3     4    1
    12     4     5    1
    13     5     6    1
    14     4     7    1
    15     7     8    2
    16     7     9   am
    17     9    21    1
    18    21    22   ar
    19    22    23   ar
    20    23    24   ar
    21    24    27    1
    22    27    28   ar
    23    28    29   ar
    24    29    30   ar
    25    30    31   ar
    26    31    32   ar
    27    24    25   ar
    28    25    26   ar
    29     9    10   am
    30    10    11    2
    31    10    12   am
    32    12    13    1
    33    13    14   ar
    34    14    15   ar
    35    15    16    1
    36    15    17   ar
    37    17    18   ar
    38    18    19   ar
    39    40    35   ar
    40     6     1    1
    41    26    21   ar
    42    19    13   ar
    43    12     4    1
    44    32    27   ar
    45    16    20    1
@<TRIPOS>MOLECULE
*****
 40 45 0 0 0
SMALL
GASTEIGER

@<TRIPOS>ATOM
      1 N         137.8394  141.2305  157.0881 N.3     1  UNL1       -0.2676
      2 C         138.7546  142.3846  156.8050 C.3     1  UNL1        0.0746
      3 C         139.5502  143.0012  157.9171 C.3     1  UNL1        0.0449
      4 C         139.4305  142.4635  159.3123 C.3     1  UNL1        0.1391
      5 C         138.5153  141.3094  159.5954 C.3     1  UNL1        0.0449
      6 C         137.7197  140.6929  158.4833 C.3     1  UNL1        0.0746
      7 C         139.4148  142.0357  160.7500 C.2     1  UNL1        0.2529
      8 O         138.6006  140.9163  161.3278 O.2     1  UNL1       -0.2724
      9 N         140.3562  142.9240  161.5083 N.am    1  UNL1       -0.1907
     10 C         140.9537  143.9008  160.5393 C.2     1  UNL1        0.3219
     11 O         141.9485  144.9736  160.8694 O.2     1  UNL1       -0.2512
     12 N         140.3817  143.6162  159.1821 N.am    1  UNL1       -0.2222
     13 C         140.7040  144.3546  157.9169 C.ar    1  UNL1        0.1453
     14 C         140.0088  145.6465  157.6045 C.ar    1  UNL1        0.0922
     15 C         140.3313  146.3848  156.3392 C.ar    1  UNL1        0.2259
     16 O         139.6360  147.6767  156.0268 O.3     1  UNL1       -0.4919
     17 N         141.3489  145.8313  155.3863 N.ar    1  UNL1       -0.1894
     18 C         142.0442  144.5394  155.6988 C.ar    1  UNL1        0.2027
     19 N         141.7217  143.8011  156.9640 N.ar    1  UNL1       -0.2084
     20 H         139.0003  148.0225  156.6220 H       1  UNL1        0.2938
     21 C         140.6486  142.8487  162.9776 C.ar    1  UNL1        0.0622
     22 C         141.9255  142.2247  163.4571 C.ar    1  UNL1        0.0154
     23 C         142.2179  142.1493  164.9263 C.ar    1  UNL1        0.0013
     24 C         141.2335  142.6980  165.9161 C.ar    1  UNL1        0.0001
     25 C         139.9565  143.3221  165.4366 C.ar    1  UNL1        0.0013
     26 C         139.6641  143.3974  163.9673 C.ar    1  UNL1        0.0154
     27 C         141.5259  142.6227  167.3854 C.ar    1  UNL1        0.0000
     28 C         140.4604  142.9735  168.3811 C.ar    1  UNL1        0.0000
     29 C         140.7528  142.8982  169.8504 C.ar    1  UNL1        0.0000
     30 C         142.1109  142.4720  170.3240 C.ar    1  UNL1        0.0000
     31 C         143.1765  142.1213  169.3282 C.ar    1  UNL1        0.0000
     32 C         142.8840  142.1966  167.8589 C.ar    1  UNL1        0.0000
     33 C         137.0437  140.6139  155.9759 C.3     1  UNL1        0.1183
     34 C         135.4994  142.1007  153.8772 C.3     1  UNL1        0.0323
     35 C         134.7725  141.3809  154.9743 C.ar    1  UNL1       -0.0069
     36 C         133.2734  141.4046  155.0220 C.ar    1  UNL1       -0.0015
     37 C         132.5465  140.6849  156.1191 C.ar    1  UNL1        0.0203
     38 C         133.3187  139.9415  157.1684 C.ar    1  UNL1        0.0985
     39 N         134.8178  139.9178  157.1207 N.ar    1  UNL1       -0.2471
     40 C         135.5447  140.6375  156.0237 C.ar    1  UNL1        0.0712
@<TRIPOS>BOND
     1    34    35    1
     2    35    36   ar
     3    36    37   ar
     4    37    38   ar
     5    38    39   ar
     6    39    40   ar
     7    40    33    1
     8    33     1    1
     9     1     2    1
    10     2     3    1
    11     3     4    1
    12     4     5    1
    13     5     6    1
    14     4     7    1
    15     7     8    2
    16     7     9   am
    17     9    21    1
    18    21    22   ar
    19    22    23   ar
    20    23    24   ar
    21    24    27    1
    22    27    28   ar
    23    28    29   ar
    24    29    30   ar
    25    30    31   ar
    26    31    32   ar
    27    24    25   ar
    28    25    26   ar
    29     9    10   am
    30    10    11    2
    31    10    12   am
    32    12    13    1
    33    13    14   ar
    34    14    15   ar
    35    15    16    1
    36    15    17   ar
    37    17    18   ar
    38    18    19   ar
    39    40    35   ar
    40     6     1    1
    41    26    21   ar
    42    19    13   ar
    43    12     4    1
    44    32    27   ar
    45    16    20    1
@<TRIPOS>MOLECULE
*****
 40 45 0 0 0
SMALL
GASTEIGER

@<TRIPOS>ATOM
      1 N         140.1294  142.4115  165.6411 N.3     1  UNL1       -0.2676
      2 C         141.3344  141.7355  165.0573 C.3     1  UNL1        0.0746
      3 C         141.4027  141.4664  163.5832 C.3     1  UNL1        0.0449
      4 C         140.2661  141.8733  162.6930 C.3     1  UNL1        0.1391
      5 C         139.0611  142.5493  163.2769 C.3     1  UNL1        0.0449
      6 C         138.9927  142.8185  164.7509 C.3     1  UNL1        0.0746
      7 C         139.2125  142.2210  161.6835 C.2     1  UNL1        0.2529
      8 O         137.9056  142.8988  161.9708 O.2     1  UNL1       -0.2724
      9 N         139.6953  141.7718  160.3361 N.am    1  UNL1       -0.1907
     10 C         141.0473  141.1465  160.5130 C.2     1  UNL1        0.3219
     11 O         141.8973  140.5612  159.4245 O.2     1  UNL1       -0.2512
     12 N         141.4001  141.2092  161.9696 N.am    1  UNL1       -0.2222
     13 C         142.6647  140.6977  162.5934 C.ar    1  UNL1        0.1453
     14 C         143.9035  141.5433  162.5787 C.ar    1  UNL1        0.0922
     15 C         145.1681  141.0317  163.2025 C.ar    1  UNL1        0.2259
     16 O         146.4070  141.8772  163.1878 O.3     1  UNL1       -0.4919
     17 N         145.1939  139.6746  163.8410 N.ar    1  UNL1       -0.1894
     18 C         143.9550  138.8291  163.8557 C.ar    1  UNL1        0.2027
     19 N         142.6904  139.3406  163.2319 N.ar    1  UNL1       -0.2084
     20 H         146.3909  142.7250  162.7890 H       1  UNL1        0.2938
     21 C         138.9560  141.9215  159.0396 C.ar    1  UNL1        0.0622
     22 C         139.1921  143.1252  158.1764 C.ar    1  UNL1        0.0154
     23 C         138.4527  143.2750  156.8799 C.ar    1  UNL1        0.0013
     24 C         137.4774  142.2211  156.4466 C.ar    1  UNL1        0.0001
     25 C         137.2413  141.0173  157.3099 C.ar    1  UNL1        0.0013
     26 C         137.9806  140.8675  158.6064 C.ar    1  UNL1        0.0154
     27 C         136.7380  142.3709  155.1501 C.ar    1  UNL1        0.0000
     28 C         135.7020  141.3601  154.7564 C.ar    1  UNL1        0.0000
     29 C         134.9627  141.5099  153.4599 C.ar    1  UNL1        0.0000
     30 C         135.2593  142.6705  152.5571 C.ar    1  UNL1        0.0000
     31 C         136.2954  143.6813  152.9508 C.ar    1  UNL1        0.0000
     32 C         137.0347  143.5315  154.2473 C.ar    1  UNL1        0.0000
     33 C         140.0610  142.6807  167.1152 C.3     1  UNL1        0.1183
     34 C         139.2926  139.9463  168.0811 C.3     1  UNL1        0.0323
     35 C         140.5778  140.5698  168.5390 C.ar    1  UNL1       -0.0069
     36 C         141.4787  139.8260  169.4797 C.ar    1  UNL1       -0.0015
     37 C         142.7639  140.4495  169.9376 C.ar    1  UNL1        0.0203
     38 C         143.1481  141.8166  169.4547 C.ar    1  UNL1        0.0985
     39 N         142.2471  142.5604  168.5139 N.ar    1  UNL1       -0.2471
     40 C         140.9619  141.9370  168.0560 C.ar    1  UNL1        0.0712
@<TRIPOS>BOND
     1    34    35    1
     2    35    36   ar
     3    36    37   ar
     4    37    38   ar
     5    38    39   ar
     6    39    40   ar
     7    40    33    1
     8    33     1    1
     9     1     2    1
    10     2     3    1
    11     3     4    1
    12     4     5    1
    13     5     6    1
    14     4     7    1
    15     7     8    2
    16     7     9   am
    17     9    21    1
    18    21    22   ar
    19    22    23   ar
    20    23    24   ar
    21    24    27    1
    22    27    28   ar
    23    28    29   ar
    24    29    30   ar
    25    30    31   ar
    26    31    32   ar
    27    24    25   ar
    28    25    26   ar
    29     9    10   am
    30    10    11    2
    31    10    12   am
    32    12    13    1
    33    13    14   ar
    34    14    15   ar
    35    15    16    1
    36    15    17   ar
    37    17    18   ar
    38    18    19   ar
    39    40    35   ar
    40     6     1    1
    41    26    21   ar
    42    19    13   ar
    43    12     4    1
    44    32    27   ar
    45    16    20    1
@<TRIPOS>MOLECULE
*****
 40 45 0 0 0
SMALL
GASTEIGER

@<TRIPOS>ATOM
      1 N         144.1803  141.6345  156.9726 N.3     1  UNL1       -0.2676
      2 C         143.4423  140.3303  156.9089 C.3     1  UNL1        0.0746
      3 C         142.9783  139.6686  158.1726 C.3     1  UNL1        0.0449
      4 C         143.2524  140.3112  159.5000 C.3     1  UNL1        0.1391
      5 C         143.9904  141.6155  159.5637 C.3     1  UNL1        0.0449
      6 C         144.4543  142.2772  158.3000 C.3     1  UNL1        0.0746
      7 C         143.4524  140.8316  160.8925 C.2     1  UNL1        0.2529
      8 O         144.1515  142.1052  161.2659 O.2     1  UNL1       -0.2724
      9 N         142.8305  139.8549  161.8462 N.am    1  UNL1       -0.1907
     10 C         142.2462  138.7308  161.0430 C.2     1  UNL1        0.3219
     11 O         141.5274  137.5348  161.5932 O.2     1  UNL1       -0.2512
     12 N         142.5069  139.0128  159.5930 N.am    1  UNL1       -0.2222
     13 C         142.0946  138.1483  158.4387 C.ar    1  UNL1        0.1453
     14 C         140.7112  138.2652  157.8706 C.ar    1  UNL1        0.0922
     15 C         140.2990  137.4006  156.7162 C.ar    1  UNL1        0.2259
     16 O         138.9157  137.5175  156.1481 O.3     1  UNL1       -0.4919
     17 N         141.2701  136.4191  156.1299 N.ar    1  UNL1       -0.1894
     18 C         142.6534  136.3022  156.6979 C.ar    1  UNL1        0.2027
     19 N         143.0656  137.1668  157.8523 N.ar    1  UNL1       -0.2084
     20 H         138.3091  138.1306  156.5144 H       1  UNL1        0.2938
     21 C         142.7986  139.9803  163.3406 C.ar    1  UNL1        0.0622
     22 C         143.4542  138.9363  164.1950 C.ar    1  UNL1        0.0154
     23 C         143.4223  139.0616  165.6894 C.ar    1  UNL1        0.0013
     24 C         142.7348  140.2310  166.3294 C.ar    1  UNL1        0.0001
     25 C         142.0791  141.2752  165.4750 C.ar    1  UNL1        0.0013
     26 C         142.1110  141.1498  163.9806 C.ar    1  UNL1        0.0154
     27 C         142.7029  140.3564  167.8238 C.ar    1  UNL1        0.0000
     28 C         142.8759  141.7002  168.4676 C.ar    1  UNL1        0.0000
     29 C         142.8440  141.8255  169.9619 C.ar    1  UNL1        0.0000
     30 C         142.6390  140.6071  170.8126 C.ar    1  UNL1        0.0000
     31 C         142.4660  139.2634  170.1689 C.ar    1  UNL1        0.0000
     32 C         142.4979  139.1380  168.6744 C.ar    1  UNL1        0.0000
     33 C         144.6443  142.2963  155.7089 C.3     1  UNL1        0.1183
     34 C         145.2270  141.8100  152.8065 C.3     1  UNL1        0.0323
     35 C         146.3521  141.8786  153.7961 C.ar    1  UNL1       -0.0069
     36 C         147.7686  141.7040  153.3345 C.ar    1  UNL1       -0.0015
     37 C         148.8937  141.7726  154.3241 C.ar    1  UNL1        0.0203
     38 C         148.6024  142.0157  155.7753 C.ar    1  UNL1        0.0985
     39 N         147.1859  142.1903  156.2370 N.ar    1  UNL1       -0.2471
     40 C         146.0608  142.1217  155.2474 C.ar    1  UNL1        0.0712
@<TRIPOS>BOND
     1    34    35    1
     2    35    36   ar
     3    36    37   ar
     4    37    38   ar
     5    38    39   ar
     6    39    40   ar
     7    40    33    1
     8    33     1    1
     9     1     2    1
    10     2     3    1
    11     3     4    1
    12     4     5    1
    13     5     6    1
    14     4     7    1
    15     7     8    2
    16     7     9   am
    17     9    21    1
    18    21    22   ar
    19    22    23   ar
    20    23    24   ar
    21    24    27    1
    22    27    28   ar
    23    28    29   ar
    24    29    30   ar
    25    30    31   ar
    26    31    32   ar
    27    24    25   ar
    28    25    26   ar
    29     9    10   am
    30    10    11    2
    31    10    12   am
    32    12    13    1
    33    13    14   ar
    34    14    15   ar
    35    15    16    1
    36    15    17   ar
    37    17    18   ar
    38    18    19   ar
    39    40    35   ar
    40     6     1    1
    41    26    21   ar
    42    19    13   ar
    43    12     4    1
    44    32    27   ar
    45    16    20    1
@<TRIPOS>MOLECULE
*****
 40 45 0 0 0
SMALL
GASTEIGER

@<TRIPOS>ATOM
      1 N         141.6633  138.9721  157.3166 N.3     1  UNL1       -0.2676
      2 C         140.4265  139.7974  157.1187 C.3     1  UNL1        0.0746
      3 C         139.7647  140.4509  158.2954 C.3     1  UNL1        0.0449
      4 C         140.3398  140.2793  159.6702 C.3     1  UNL1        0.1391
      5 C         141.5766  139.4541  159.8681 C.3     1  UNL1        0.0449
      6 C         142.2384  138.8005  158.6913 C.3     1  UNL1        0.0746
      7 C         140.7971  140.1978  161.0964 C.2     1  UNL1        0.2529
      8 O         141.9965  139.4485  161.5963 O.2     1  UNL1       -0.2724
      9 N         139.8443  140.9973  161.9351 N.am    1  UNL1       -0.1907
     10 C         138.7982  141.5729  161.0271 C.2     1  UNL1        0.3219
     11 O         137.6480  142.4399  161.4454 O.2     1  UNL1       -0.2512
     12 N         139.1044  141.1291  159.6273 N.am    1  UNL1       -0.2222
     13 C         138.3141  141.4745  158.4001 C.ar    1  UNL1        0.1453
     14 C         138.5926  142.7509  157.6632 C.ar    1  UNL1        0.0922
     15 C         137.8022  143.0962  156.4360 C.ar    1  UNL1        0.2259
     16 O         138.0808  144.3727  155.6991 O.3     1  UNL1       -0.4919
     17 N         136.7332  142.1651  155.9457 N.ar    1  UNL1       -0.1894
     18 C         136.4547  140.8887  156.6826 C.ar    1  UNL1        0.2027
     19 N         137.2451  140.5434  157.9098 N.ar    1  UNL1       -0.2084
     20 H         138.7485  144.9543  156.0053 H       1  UNL1        0.2938
     21 C         139.9238  141.1878  163.4208 C.ar    1  UNL1        0.0622
     22 C         139.1199  140.3100  164.3335 C.ar    1  UNL1        0.0154
     23 C         139.1994  140.5005  165.8192 C.ar    1  UNL1        0.0013
     24 C         140.0827  141.5687  166.3923 C.ar    1  UNL1        0.0001
     25 C         140.8867  142.4465  165.4795 C.ar    1  UNL1        0.0013
     26 C         140.8072  142.2561  163.9938 C.ar    1  UNL1        0.0154
     27 C         140.1622  141.7592  167.8780 C.ar    1  UNL1        0.0000
     28 C         140.4733  143.1126  168.4450 C.ar    1  UNL1        0.0000
     29 C         140.5527  143.3031  169.9308 C.ar    1  UNL1        0.0000
     30 C         140.3211  142.1401  170.8495 C.ar    1  UNL1        0.0000
     31 C         140.0100  140.7867  170.2824 C.ar    1  UNL1        0.0000
     32 C         139.9306  140.5962  168.7966 C.ar    1  UNL1        0.0000
     33 C         142.3252  138.3185  156.1398 C.3     1  UNL1        0.1183
     34 C         140.0788  136.7156  154.9632 C.3     1  UNL1        0.0323
     35 C         141.3031  136.0220  155.4828 C.ar    1  UNL1       -0.0069
     36 C         141.4043  134.5270  155.4140 C.ar    1  UNL1       -0.0015
     37 C         142.6287  133.8335  155.9335 C.ar    1  UNL1        0.0203
     38 C         143.7519  134.6349  156.5218 C.ar    1  UNL1        0.0985
     39 N         143.6507  136.1300  156.5906 N.ar    1  UNL1       -0.2471
     40 C         142.4264  136.8235  156.0711 C.ar    1  UNL1        0.0712
@<TRIPOS>BOND
     1    34    35    1
     2    35    36   ar
     3    36    37   ar
     4    37    38   ar
     5    38    39   ar
     6    39    40   ar
     7    40    33    1
     8    33     1    1
     9     1     2    1
    10     2     3    1
    11     3     4    1
    12     4     5    1
    13     5     6    1
    14     4     7    1
    15     7     8    2
    16     7     9   am
    17     9    21    1
    18    21    22   ar
    19    22    23   ar
    20    23    24   ar
    21    24    27    1
    22    27    28   ar
    23    28    29   ar
    24    29    30   ar
    25    30    31   ar
    26    31    32   ar
    27    24    25   ar
    28    25    26   ar
    29     9    10   am
    30    10    11    2
    31    10    12   am
    32    12    13    1
    33    13    14   ar
    34    14    15   ar
    35    15    16    1
    36    15    17   ar
    37    17    18   ar
    38    18    19   ar
    39    40    35   ar
    40     6     1    1
    41    26    21   ar
    42    19    13   ar
    43    12     4    1
    44    32    27   ar
    45    16    20    1
