@<TRIPOS>MOLECULE
*****
 26 29 0 0 0
SMALL
GASTEIGER

@<TRIPOS>ATOM
      1 O         143.3600  138.5358  168.1185 O.2     1  UNL1       -0.2699
      2 C         142.6472  139.7231  167.5423 C.2     1  UNL1        0.2495
      3 N         142.8536  140.0966  166.1042 N.am    1  UNL1       -0.2684
      4 C         143.7728  139.2828  165.2425 C.3     1  UNL1        0.1204
      5 C         143.9791  139.6563  163.8045 C.3     1  UNL1        0.1486
      6 N         143.2663  140.8437  163.2283 N.ar    1  UNL1       -0.2515
      7 N         143.2723  141.4493  161.8559 N.ar    1  UNL1       -0.1680
      8 C         142.3568  142.6374  161.8696 C.ar    1  UNL1        0.1197
      9 C         141.7850  142.7661  163.2503 C.ar    1  UNL1        0.0384
     10 C         142.3471  141.6575  164.0900 C.ar    1  UNL1        0.0773
     11 C         142.1408  141.2840  165.5280 C.3     1  UNL1        0.1393
     12 C         141.7280  140.5370  168.4041 C.ar    1  UNL1        0.0567
     13 C         142.1261  141.9195  168.8285 C.ar    1  UNL1        0.0342
     14 C         141.2069  142.7333  169.6904 C.ar    1  UNL1        0.1411
     15 F         141.6050  144.1159  170.1148 F       1  UNL1       -0.2041
     16 C         139.8896  142.1647  170.1277 C.ar    1  UNL1        0.0410
     17 C         139.4915  140.7822  169.7032 C.ar    1  UNL1        0.0601
     18 CL        138.1742  140.2135  170.1406 Cl      1  UNL1       -0.0822
     19 C         140.4106  139.9683  168.8415 C.ar    1  UNL1        0.0161
     20 C         142.0643  143.5386  160.7066 C.ar    1  UNL1        0.1008
     21 C         141.0156  144.6040  160.8287 C.ar    1  UNL1        0.0230
     22 C         140.7231  145.5052  159.6658 C.ar    1  UNL1        0.0328
     23 C         141.4794  145.3410  158.3809 C.ar    1  UNL1        0.1592
     24 F         141.1870  146.2422  157.2180 F       1  UNL1       -0.2025
     25 C         142.5282  144.2756  158.2589 C.ar    1  UNL1        0.1284
     26 N         142.8207  143.3744  159.4218 N.ar    1  UNL1       -0.2399
@<TRIPOS>BOND
     1     1     2    2
     2     2    12    1
     3    12    13   ar
     4    13    14   ar
     5    14    15    1
     6    14    16   ar
     7    16    17   ar
     8    17    18    1
     9    17    19   ar
    10     2     3   am
    11     3     4    1
    12     4     5    1
    13     5     6    1
    14     6     7   ar
    15     7     8   ar
    16     8    20    1
    17    20    21   ar
    18    21    22   ar
    19    22    23   ar
    20    23    24    1
    21    23    25   ar
    22    25    26   ar
    23     8     9   ar
    24     9    10   ar
    25    10    11    1
    26    19    12   ar
    27    11     3    1
    28    10     6   ar
    29    26    20   ar
@<TRIPOS>MOLECULE
*****
 26 29 0 0 0
SMALL
GASTEIGER

@<TRIPOS>ATOM
      1 O         143.6186  138.1302  167.7188 O.2     1  UNL1       -0.2699
      2 C         142.9400  139.3888  167.2655 C.2     1  UNL1        0.2495
      3 N         143.0067  139.7995  165.8243 N.am    1  UNL1       -0.2684
      4 C         143.7519  138.9517  164.8365 C.3     1  UNL1        0.1204
      5 C         143.8185  139.3625  163.3954 C.3     1  UNL1        0.1486
      6 N         143.1399  140.6211  162.9422 N.ar    1  UNL1       -0.2515
      7 N         143.0342  141.2757  161.5966 N.ar    1  UNL1       -0.1680
      8 C         142.2236  142.5281  161.7529 C.ar    1  UNL1        0.1197
      9 C         141.8284  142.6475  163.1950 C.ar    1  UNL1        0.0384
     10 C         142.3947  141.4689  163.9300 C.ar    1  UNL1        0.0773
     11 C         142.3280  141.0581  165.3710 C.3     1  UNL1        0.1393
     12 C         142.1948  140.2366  168.2533 C.ar    1  UNL1        0.0567
     13 C         140.7446  139.9690  168.5279 C.ar    1  UNL1        0.0342
     14 C         139.9994  140.8169  169.5158 C.ar    1  UNL1        0.1411
     15 F         138.5492  140.5492  169.7903 F       1  UNL1       -0.2041
     16 C         140.7043  141.9323  170.2290 C.ar    1  UNL1        0.0410
     17 C         142.1545  142.2000  169.9544 C.ar    1  UNL1        0.0601
     18 CL        142.8594  143.3154  170.6676 Cl      1  UNL1       -0.0822
     19 C         142.8997  141.3522  168.9666 C.ar    1  UNL1        0.0161
     20 C         141.8702  143.4919  160.6591 C.ar    1  UNL1        0.1008
     21 C         140.7654  144.4857  160.8633 C.ar    1  UNL1        0.0230
     22 C         140.4120  145.4495  159.7696 C.ar    1  UNL1        0.0328
     23 C         141.1635  145.4196  158.4718 C.ar    1  UNL1        0.1592
     24 F         140.8101  146.3834  157.3781 F       1  UNL1       -0.2025
     25 C         142.2683  144.4258  158.2677 C.ar    1  UNL1        0.1284
     26 N         142.6217  143.4619  159.3613 N.ar    1  UNL1       -0.2399
@<TRIPOS>BOND
     1     1     2    2
     2     2    12    1
     3    12    13   ar
     4    13    14   ar
     5    14    15    1
     6    14    16   ar
     7    16    17   ar
     8    17    18    1
     9    17    19   ar
    10     2     3   am
    11     3     4    1
    12     4     5    1
    13     5     6    1
    14     6     7   ar
    15     7     8   ar
    16     8    20    1
    17    20    21   ar
    18    21    22   ar
    19    22    23   ar
    20    23    24    1
    21    23    25   ar
    22    25    26   ar
    23     8     9   ar
    24     9    10   ar
    25    10    11    1
    26    19    12   ar
    27    11     3    1
    28    10     6   ar
    29    26    20   ar
@<TRIPOS>MOLECULE
*****
 26 29 0 0 0
SMALL
GASTEIGER

@<TRIPOS>ATOM
      1 O         138.0536  139.0460  168.4356 O.2     1  UNL1       -0.2699
      2 C         139.2508  139.7320  167.8472 C.2     1  UNL1        0.2495
      3 N         139.5058  139.6605  166.3708 N.am    1  UNL1       -0.2684
      4 C         138.5637  138.9031  165.4827 C.3     1  UNL1        0.1204
      5 C         138.8188  138.8316  164.0063 C.3     1  UNL1        0.1486
      6 N         140.0160  139.5176  163.4180 N.ar    1  UNL1       -0.2515
      7 N         140.5222  139.6210  162.0097 N.ar    1  UNL1       -0.1680
      8 C         141.7772  140.4423  162.0275 C.ar    1  UNL1        0.1197
      9 C         142.0466  140.8466  163.4466 C.ar    1  UNL1        0.0384
     10 C         140.9581  140.2751  164.3060 C.ar    1  UNL1        0.0773
     11 C         140.7030  140.3465  165.7824 C.3     1  UNL1        0.1393
     12 C         140.1929  140.4895  168.7353 C.ar    1  UNL1        0.0567
     13 C         141.3312  139.7763  169.4028 C.ar    1  UNL1        0.0342
     14 C         142.2734  140.5338  170.2908 C.ar    1  UNL1        0.1411
     15 F         143.4117  139.8206  170.9584 F       1  UNL1       -0.2041
     16 C         142.0771  142.0045  170.5114 C.ar    1  UNL1        0.0410
     17 C         140.9388  142.7177  169.8439 C.ar    1  UNL1        0.0601
     18 CL        140.7426  144.1883  170.0644 Cl      1  UNL1       -0.0822
     19 C         139.9967  141.9602  168.9558 C.ar    1  UNL1        0.0161
     20 C         142.6157  140.7971  160.8353 C.ar    1  UNL1        0.1008
     21 C         143.2545  142.1513  160.7439 C.ar    1  UNL1        0.0230
     22 C         144.0929  142.5061  159.5519 C.ar    1  UNL1        0.0328
     23 C         144.2927  141.5068  158.4512 C.ar    1  UNL1        0.1592
     24 F         145.1312  141.8616  157.2591 F       1  UNL1       -0.2025
     25 C         143.6540  140.1527  158.5427 C.ar    1  UNL1        0.1284
     26 N         142.8155  139.7978  159.7347 N.ar    1  UNL1       -0.2399
@<TRIPOS>BOND
     1     1     2    2
     2     2    12    1
     3    12    13   ar
     4    13    14   ar
     5    14    15    1
     6    14    16   ar
     7    16    17   ar
     8    17    18    1
     9    17    19   ar
    10     2     3   am
    11     3     4    1
    12     4     5    1
    13     5     6    1
    14     6     7   ar
    15     7     8   ar
    16     8    20    1
    17    20    21   ar
    18    21    22   ar
    19    22    23   ar
    20    23    24    1
    21    23    25   ar
    22    25    26   ar
    23     8     9   ar
    24     9    10   ar
    25    10    11    1
    26    19    12   ar
    27    11     3    1
    28    10     6   ar
    29    26    20   ar
@<TRIPOS>MOLECULE
*****
 26 29 0 0 0
SMALL
GASTEIGER

@<TRIPOS>ATOM
      1 O         138.4873  144.9500  165.4429 O.2     1  UNL1       -0.2699
      2 C         139.3971  143.9514  164.7910 C.2     1  UNL1        0.2495
      3 N         139.9787  144.2377  163.4383 N.am    1  UNL1       -0.2684
      4 C         139.6505  145.5226  162.7374 C.3     1  UNL1        0.1204
      5 C         140.2321  145.8088  161.3848 C.3     1  UNL1        0.1486
      6 N         141.1419  144.8101  160.7330 N.ar    1  UNL1       -0.2515
      7 N         141.8594  144.8161  159.4156 N.ar    1  UNL1       -0.1680
      8 C         142.6311  143.5348  159.3024 C.ar    1  UNL1        0.1197
      9 C         142.3905  142.7370  160.5497 C.ar    1  UNL1        0.0384
     10 C         141.4701  143.5252  161.4338 C.ar    1  UNL1        0.0773
     11 C         140.8885  143.2390  162.7865 C.3     1  UNL1        0.1393
     12 C         139.7253  142.6665  165.4919 C.ar    1  UNL1        0.0567
     13 C         140.9342  142.5819  166.3759 C.ar    1  UNL1        0.0342
     14 C         141.2624  141.2969  167.0768 C.ar    1  UNL1        0.1411
     15 F         142.4712  141.2123  167.9608 F       1  UNL1       -0.2041
     16 C         140.3817  140.0966  166.8936 C.ar    1  UNL1        0.0410
     17 C         139.1729  140.1811  166.0096 C.ar    1  UNL1        0.0601
     18 CL        138.2923  138.9808  165.8264 Cl      1  UNL1       -0.0822
     19 C         138.8447  141.4660  165.3087 C.ar    1  UNL1        0.0161
     20 C         143.4922  143.1234  158.1451 C.ar    1  UNL1        0.1008
     21 C         144.8445  142.5235  158.3925 C.ar    1  UNL1        0.0230
     22 C         145.7056  142.1121  157.2352 C.ar    1  UNL1        0.0328
     23 C         145.2144  142.3007  155.8306 C.ar    1  UNL1        0.1592
     24 F         146.0755  141.8894  154.6733 F       1  UNL1       -0.2025
     25 C         143.8620  142.9007  155.5832 C.ar    1  UNL1        0.1284
     26 N         143.0009  143.3120  156.7404 N.ar    1  UNL1       -0.2399
@<TRIPOS>BOND
     1     1     2    2
     2     2    12    1
     3    12    13   ar
     4    13    14   ar
     5    14    15    1
     6    14    16   ar
     7    16    17   ar
     8    17    18    1
     9    17    19   ar
    10     2     3   am
    11     3     4    1
    12     4     5    1
    13     5     6    1
    14     6     7   ar
    15     7     8   ar
    16     8    20    1
    17    20    21   ar
    18    21    22   ar
    19    22    23   ar
    20    23    24    1
    21    23    25   ar
    22    25    26   ar
    23     8     9   ar
    24     9    10   ar
    25    10    11    1
    26    19    12   ar
    27    11     3    1
    28    10     6   ar
    29    26    20   ar
@<TRIPOS>MOLECULE
*****
 26 29 0 0 0
SMALL
GASTEIGER

@<TRIPOS>ATOM
      1 O         138.4100  144.9503  165.3928 O.2     1  UNL1       -0.2699
      2 C         139.3020  143.9392  164.7356 C.2     1  UNL1        0.2495
      3 N         139.9157  144.2363  163.3994 N.am    1  UNL1       -0.2684
      4 C         139.6373  145.5446  162.7206 C.3     1  UNL1        0.1204
      5 C         140.2510  145.8417  161.3845 C.3     1  UNL1        0.1486
      6 N         141.1430  144.8306  160.7273 N.ar    1  UNL1       -0.2515
      7 N         141.8837  144.8428  159.4230 N.ar    1  UNL1       -0.1680
      8 C         142.6199  143.5421  159.2958 C.ar    1  UNL1        0.1197
      9 C         142.3341  142.7260  160.5215 C.ar    1  UNL1        0.0384
     10 C         141.4214  143.5223  161.4062 C.ar    1  UNL1        0.0773
     11 C         140.8077  143.2252  162.7423 C.3     1  UNL1        0.1393
     12 C         139.5804  142.6309  165.4145 C.ar    1  UNL1        0.0567
     13 C         138.6614  141.4648  165.2012 C.ar    1  UNL1        0.0342
     14 C         138.9399  140.1564  165.8801 C.ar    1  UNL1        0.1411
     15 F         138.0209  138.9903  165.6668 F       1  UNL1       -0.2041
     16 C         140.1372  140.0144  166.7723 C.ar    1  UNL1        0.0410
     17 C         141.0562  141.1805  166.9856 C.ar    1  UNL1        0.0601
     18 CL        142.2536  141.0385  167.8778 Cl      1  UNL1       -0.0822
     19 C         140.7779  142.4888  166.3067 C.ar    1  UNL1        0.0161
     20 C         143.4892  143.1299  158.1449 C.ar    1  UNL1        0.1008
     21 C         142.9778  143.2455  156.7396 C.ar    1  UNL1        0.0230
     22 C         143.8470  142.8333  155.5888 C.ar    1  UNL1        0.0328
     23 C         145.2277  142.3054  155.8433 C.ar    1  UNL1        0.1592
     24 F         146.0971  141.8931  154.6925 F       1  UNL1       -0.2025
     25 C         145.7392  142.1897  157.2487 C.ar    1  UNL1        0.1284
     26 N         144.8700  142.6019  158.3995 N.ar    1  UNL1       -0.2399
@<TRIPOS>BOND
     1     1     2    2
     2     2    12    1
     3    12    13   ar
     4    13    14   ar
     5    14    15    1
     6    14    16   ar
     7    16    17   ar
     8    17    18    1
     9    17    19   ar
    10     2     3   am
    11     3     4    1
    12     4     5    1
    13     5     6    1
    14     6     7   ar
    15     7     8   ar
    16     8    20    1
    17    20    21   ar
    18    21    22   ar
    19    22    23   ar
    20    23    24    1
    21    23    25   ar
    22    25    26   ar
    23     8     9   ar
    24     9    10   ar
    25    10    11    1
    26    19    12   ar
    27    11     3    1
    28    10     6   ar
    29    26    20   ar
@<TRIPOS>MOLECULE
*****
 26 29 0 0 0
SMALL
GASTEIGER

@<TRIPOS>ATOM
      1 O         138.2811  138.8941  168.1019 O.2     1  UNL1       -0.2699
      2 C         139.1988  139.9495  167.5597 C.2     1  UNL1        0.2495
      3 N         139.1874  140.2729  166.0950 N.am    1  UNL1       -0.2684
      4 C         138.2583  139.5409  165.1725 C.3     1  UNL1        0.1204
      5 C         138.2470  139.8644  163.7079 C.3     1  UNL1        0.1486
      6 N         139.1647  140.9197  163.1657 N.ar    1  UNL1       -0.2515
      7 N         139.3753  141.4506  161.7786 N.ar    1  UNL1       -0.1680
      8 C         140.4345  142.5107  161.8439 C.ar    1  UNL1        0.1197
      9 C         140.8786  142.6349  163.2713 C.ar    1  UNL1        0.0384
     10 C         140.0938  141.6517  164.0882 C.ar    1  UNL1        0.0773
     11 C         140.1052  141.3283  165.5528 C.3     1  UNL1        0.1393
     12 C         140.1279  140.6814  168.4822 C.ar    1  UNL1        0.0567
     13 C         141.3010  139.9680  169.0862 C.ar    1  UNL1        0.0342
     14 C         142.2302  140.7001  170.0087 C.ar    1  UNL1        0.1411
     15 F         143.4033  139.9867  170.6127 F       1  UNL1       -0.2041
     16 C         141.9861  142.1454  170.3272 C.ar    1  UNL1        0.0410
     17 C         140.8130  142.8587  169.7232 C.ar    1  UNL1        0.0601
     18 CL        140.5689  144.3041  170.0416 Cl      1  UNL1       -0.0822
     19 C         139.8839  142.1268  168.8007 C.ar    1  UNL1        0.0161
     20 C         140.9578  143.3068  160.6852 C.ar    1  UNL1        0.1008
     21 C         142.1044  142.7829  159.8722 C.ar    1  UNL1        0.0230
     22 C         142.6277  143.5789  158.7136 C.ar    1  UNL1        0.0328
     23 C         142.0045  144.8988  158.3680 C.ar    1  UNL1        0.1592
     24 F         142.5278  145.6949  157.2093 F       1  UNL1       -0.2025
     25 C         140.8579  145.4227  159.1810 C.ar    1  UNL1        0.1284
     26 N         140.3346  144.6266  160.3396 N.ar    1  UNL1       -0.2399
@<TRIPOS>BOND
     1     1     2    2
     2     2    12    1
     3    12    13   ar
     4    13    14   ar
     5    14    15    1
     6    14    16   ar
     7    16    17   ar
     8    17    18    1
     9    17    19   ar
    10     2     3   am
    11     3     4    1
    12     4     5    1
    13     5     6    1
    14     6     7   ar
    15     7     8   ar
    16     8    20    1
    17    20    21   ar
    18    21    22   ar
    19    22    23   ar
    20    23    24    1
    21    23    25   ar
    22    25    26   ar
    23     8     9   ar
    24     9    10   ar
    25    10    11    1
    26    19    12   ar
    27    11     3    1
    28    10     6   ar
    29    26    20   ar
@<TRIPOS>MOLECULE
*****
 26 29 0 0 0
SMALL
GASTEIGER

@<TRIPOS>ATOM
      1 O         143.3534  138.6902  168.2610 O.2     1  UNL1       -0.2699
      2 C         142.3426  139.5969  167.6238 C.2     1  UNL1        0.2495
      3 N         142.2227  139.6540  166.1296 N.am    1  UNL1       -0.2684
      4 C         143.1136  138.8043  165.2728 C.3     1  UNL1        0.1204
      5 C         142.9938  138.8614  163.7787 C.3     1  UNL1        0.1486
      6 N         141.9829  139.7682  163.1415 N.ar    1  UNL1       -0.2515
      7 N         141.6374  140.0348  161.7063 N.ar    1  UNL1       -0.1680
      8 C         140.5329  141.0493  161.6763 C.ar    1  UNL1        0.1197
      9 C         140.1958  141.4096  163.0928 C.ar    1  UNL1        0.0384
     10 C         141.0920  140.6178  163.9983 C.ar    1  UNL1        0.0773
     11 C         141.2119  140.5607  165.4924 C.3     1  UNL1        0.1393
     12 C         141.4516  140.4466  168.4807 C.ar    1  UNL1        0.0567
     13 C         141.8556  141.8503  168.8217 C.ar    1  UNL1        0.0342
     14 C         140.9646  142.7000  169.6786 C.ar    1  UNL1        0.1411
     15 F         141.3686  144.1037  170.0197 F       1  UNL1       -0.2041
     16 C         139.6697  142.1459  170.1945 C.ar    1  UNL1        0.0410
     17 C         139.2657  140.7421  169.8534 C.ar    1  UNL1        0.0601
     18 CL        137.9708  140.1880  170.3692 Cl      1  UNL1       -0.0822
     19 C         140.1566  139.8925  168.9965 C.ar    1  UNL1        0.0161
     20 C         139.8801  141.6058  160.4457 C.ar    1  UNL1        0.1008
     21 C         138.8259  140.8125  159.7320 C.ar    1  UNL1        0.0230
     22 C         138.1731  141.3690  158.5015 C.ar    1  UNL1        0.0328
     23 C         138.5744  142.7187  157.9848 C.ar    1  UNL1        0.1592
     24 F         137.9216  143.2752  156.7542 F       1  UNL1       -0.2025
     25 C         139.6286  143.5120  158.6985 C.ar    1  UNL1        0.1284
     26 N         140.2814  142.9556  159.9290 N.ar    1  UNL1       -0.2399
@<TRIPOS>BOND
     1     1     2    2
     2     2    12    1
     3    12    13   ar
     4    13    14   ar
     5    14    15    1
     6    14    16   ar
     7    16    17   ar
     8    17    18    1
     9    17    19   ar
    10     2     3   am
    11     3     4    1
    12     4     5    1
    13     5     6    1
    14     6     7   ar
    15     7     8   ar
    16     8    20    1
    17    20    21   ar
    18    21    22   ar
    19    22    23   ar
    20    23    24    1
    21    23    25   ar
    22    25    26   ar
    23     8     9   ar
    24     9    10   ar
    25    10    11    1
    26    19    12   ar
    27    11     3    1
    28    10     6   ar
    29    26    20   ar
@<TRIPOS>MOLECULE
*****
 26 29 0 0 0
SMALL
GASTEIGER

@<TRIPOS>ATOM
      1 O         143.1997  141.3852  166.2410 O.2     1  UNL1       -0.2699
      2 C         142.2377  141.1818  165.1082 C.2     1  UNL1        0.2495
      3 N         142.2002  142.1597  163.9713 N.am    1  UNL1       -0.2684
      4 C         143.1246  143.3409  163.9672 C.3     1  UNL1        0.1204
      5 C         143.0870  144.3187  162.8304 C.3     1  UNL1        0.1486
      6 N         142.1250  144.1153  161.6976 N.ar    1  UNL1       -0.2515
      7 N         141.8618  144.9056  160.4501 N.ar    1  UNL1       -0.1680
      8 C         140.7747  144.2127  159.6832 C.ar    1  UNL1        0.1197
      9 C         140.3661  142.9943  160.4568 C.ar    1  UNL1        0.0384
     10 C         141.2006  142.9340  161.7017 C.ar    1  UNL1        0.0773
     11 C         141.2381  141.9563  162.8386 C.3     1  UNL1        0.1393
     12 C         141.3133  140.0006  165.1123 C.ar    1  UNL1        0.0567
     13 C         141.6814  138.7575  164.3579 C.ar    1  UNL1        0.0342
     14 C         140.7569  137.5762  164.3620 C.ar    1  UNL1        0.1411
     15 F         141.1250  136.3331  163.6076 F       1  UNL1       -0.2041
     16 C         139.4643  137.6381  165.1205 C.ar    1  UNL1        0.0410
     17 C         139.0962  138.8812  165.8749 C.ar    1  UNL1        0.0601
     18 CL        137.8036  138.9431  166.6334 Cl      1  UNL1       -0.0822
     19 C         140.0206  140.0624  165.8708 C.ar    1  UNL1        0.0161
     20 C         140.1976  144.6598  158.3728 C.ar    1  UNL1        0.1008
     21 C         139.5391  143.6641  157.4646 C.ar    1  UNL1        0.0230
     22 C         138.9620  144.1111  156.1542 C.ar    1  UNL1        0.0328
     23 C         139.0433  145.5538  155.7521 C.ar    1  UNL1        0.1592
     24 F         138.4662  146.0009  154.4417 F       1  UNL1       -0.2025
     25 C         139.7018  146.5496  156.6603 C.ar    1  UNL1        0.1284
     26 N         140.2789  146.1026  157.9707 N.ar    1  UNL1       -0.2399
@<TRIPOS>BOND
     1     1     2    2
     2     2    12    1
     3    12    13   ar
     4    13    14   ar
     5    14    15    1
     6    14    16   ar
     7    16    17   ar
     8    17    18    1
     9    17    19   ar
    10     2     3   am
    11     3     4    1
    12     4     5    1
    13     5     6    1
    14     6     7   ar
    15     7     8   ar
    16     8    20    1
    17    20    21   ar
    18    21    22   ar
    19    22    23   ar
    20    23    24    1
    21    23    25   ar
    22    25    26   ar
    23     8     9   ar
    24     9    10   ar
    25    10    11    1
    26    19    12   ar
    27    11     3    1
    28    10     6   ar
    29    26    20   ar
@<TRIPOS>MOLECULE
*****
 26 29 0 0 0
SMALL
GASTEIGER

@<TRIPOS>ATOM
      1 O         144.0998  138.2920  166.3873 O.2     1  UNL1       -0.2699
      2 C         143.0714  139.2578  165.8776 C.2     1  UNL1        0.2495
      3 N         143.2889  139.9659  164.5733 N.am    1  UNL1       -0.2684
      4 C         144.5347  139.7083  163.7786 C.3     1  UNL1        0.1204
      5 C         144.7521  140.4164  162.4743 C.3     1  UNL1        0.1486
      6 N         143.7237  141.3821  161.9646 N.ar    1  UNL1       -0.2515
      7 N         143.6634  142.2216  160.7230 N.ar    1  UNL1       -0.1680
      8 C         142.3803  142.9981  160.7503 C.ar    1  UNL1        0.1197
      9 C         141.6476  142.6384  162.0088 C.ar    1  UNL1        0.0384
     10 C         142.4779  141.6397  162.7593 C.ar    1  UNL1        0.0773
     11 C         142.2605  140.9316  164.0636 C.3     1  UNL1        0.1393
     12 C         141.8256  139.5154  166.6723 C.ar    1  UNL1        0.0567
     13 C         141.9187  140.1509  168.0278 C.ar    1  UNL1        0.0342
     14 C         140.6728  140.4085  168.8225 C.ar    1  UNL1        0.1411
     15 F         140.7658  141.0441  170.1780 F       1  UNL1       -0.2041
     16 C         139.3339  140.0306  168.2617 C.ar    1  UNL1        0.0410
     17 C         139.2409  139.3951  166.9061 C.ar    1  UNL1        0.0601
     18 CL        137.9020  139.0172  166.3453 Cl      1  UNL1       -0.0822
     19 C         140.4867  139.1375  166.1115 C.ar    1  UNL1        0.0161
     20 C         141.9120  143.9645  159.7030 C.ar    1  UNL1        0.1008
     21 C         140.5947  144.6638  159.8631 C.ar    1  UNL1        0.0230
     22 C         140.1264  145.6302  158.8158 C.ar    1  UNL1        0.0328
     23 C         140.9755  145.8973  157.6085 C.ar    1  UNL1        0.1592
     24 F         140.5072  146.8637  156.5612 F       1  UNL1       -0.2025
     25 C         142.2928  145.1980  157.4484 C.ar    1  UNL1        0.1284
     26 N         142.7611  144.2316  158.4957 N.ar    1  UNL1       -0.2399
@<TRIPOS>BOND
     1     1     2    2
     2     2    12    1
     3    12    13   ar
     4    13    14   ar
     5    14    15    1
     6    14    16   ar
     7    16    17   ar
     8    17    18    1
     9    17    19   ar
    10     2     3   am
    11     3     4    1
    12     4     5    1
    13     5     6    1
    14     6     7   ar
    15     7     8   ar
    16     8    20    1
    17    20    21   ar
    18    21    22   ar
    19    22    23   ar
    20    23    24    1
    21    23    25   ar
    22    25    26   ar
    23     8     9   ar
    24     9    10   ar
    25    10    11    1
    26    19    12   ar
    27    11     3    1
    28    10     6   ar
    29    26    20   ar
