@<TRIPOS>MOLECULE
*****
 40 45 0 0 0
SMALL
GASTEIGER

@<TRIPOS>ATOM
      1 C         139.0297  140.0432  157.9693 C.2     1  UNL1        0.0591
      2 C         140.0111  140.3774  159.0531 C.2     1  UNL1        0.0708
      3 C         141.2663  139.5699  159.2035 C.3     1  UNL1        0.1717
      4 N         141.5399  138.4282  158.2698 N.ar    1  UNL1       -0.2297
      5 N         142.6826  137.4612  158.1746 N.ar    1  UNL1       -0.1636
      6 C         142.4072  136.5294  157.0318 C.ar    1  UNL1        0.1750
      7 C         141.0944  136.9205  156.4208 C.ar    1  UNL1        0.0589
      8 C         140.5583  138.0941  157.1859 C.ar    1  UNL1        0.1311
      9 N         139.3032  138.9016  157.0356 N.pl3   1  UNL1       -0.2996
     10 H         138.6590  138.6823  156.3242 H       1  UNL1        0.1534
     11 C         142.2479  139.9041  160.2874 C.ar    1  UNL1        0.0641
     12 C         143.2126  141.0526  160.2798 C.ar    1  UNL1        0.0164
     13 C         143.9979  141.0067  161.5570 C.ar    1  UNL1        0.0170
     14 C         145.0876  141.8846  162.0973 C.ar    1  UNL1        0.0015
     15 C         145.6979  141.5855  163.4345 C.ar    1  UNL1        0.0001
     16 C         145.2184  140.4086  164.2314 C.ar    1  UNL1        0.0015
     17 C         144.1287  139.5308  163.6911 C.ar    1  UNL1        0.0172
     18 C         143.5185  139.8298  162.3539 C.ar    1  UNL1        0.0598
     19 N         142.4369  139.1483  161.5693 N.ar    1  UNL1       -0.3267
     20 C         141.6776  137.9258  161.9922 C.3     1  UNL1        0.1302
     21 C         139.7376  141.5191  159.9869 C.2     1  UNL1        0.2485
     22 O         138.9540  141.2880  161.2449 O.2     1  UNL1       -0.2701
     23 N         140.2476  142.8920  159.6625 N.am    1  UNL1       -0.2709
     24 C         141.0411  143.2736  158.4482 C.3     1  UNL1        0.0941
     25 C         141.3376  144.7416  158.5307 C.3     1  UNL1        0.0237
     26 C         140.7273  145.2673  159.7960 C.3     1  UNL1        0.0295
     27 C         140.0536  144.1241  160.4955 C.3     1  UNL1        0.1356
     28 C         139.3156  144.1999  161.7992 C.ar    1  UNL1        0.1719
     29 C         139.9109  144.5519  163.1302 C.ar    1  UNL1        0.0553
     30 C         138.8159  144.5065  164.1544 C.ar    1  UNL1        0.1008
     31 C         138.9664  144.7912  165.6194 C.3     1  UNL1        0.0557
     32 N         137.5438  144.1264  163.4563 N.ar    1  UNL1       -0.0817
     33 O         137.8526  143.9369  162.0006 O.2     1  UNL1       -0.3564
     34 C         143.2898  135.4040  156.5795 C.3     1  UNL1        0.4366
     35 F         144.1724  134.2786  156.1272 F       1  UNL1       -0.1643
     36 F         143.3221  134.8666  157.9796 F       1  UNL1       -0.1643
     37 F         143.2575  135.9414  155.1795 F       1  UNL1       -0.1643
     38 C         137.7745  140.8508  157.8190 C.3     1  UNL1        0.1830
     39 C         135.8913  141.1618  156.0563 C.3     1  UNL1        0.1746
     40 O         136.6145  140.2970  157.0460 O.3     1  UNL1       -0.3450
@<TRIPOS>BOND
     1    39    40    1
     2    40    38    1
     3    38     1    1
     4     1     2    2
     5     2    21    1
     6    21    22    2
     7    21    23   am
     8    23    24    1
     9    24    25    1
    10    25    26    1
    11    26    27    1
    12    27    28    1
    13    28    29   ar
    14    29    30   ar
    15    30    31    1
    16    30    32   ar
    17    32    33   ar
    18     2     3    1
    19     3    11    1
    20    11    12   ar
    21    12    13   ar
    22    13    14   ar
    23    14    15   ar
    24    15    16   ar
    25    16    17   ar
    26    17    18   ar
    27    18    19   ar
    28    19    20    1
    29     3     4    1
    30     4     5   ar
    31     5     6   ar
    32     6    34    1
    33    34    35    1
    34    34    36    1
    35    34    37    1
    36     6     7   ar
    37     7     8   ar
    38     8     9    1
    39     9     1    1
    40    27    23    1
    41    33    28   ar
    42    19    11   ar
    43     8     4   ar
    44    18    13   ar
    45     9    10    1
@<TRIPOS>MOLECULE
*****
 40 45 0 0 0
SMALL
GASTEIGER

@<TRIPOS>ATOM
      1 C         143.0565  141.3218  157.1089 C.2     1  UNL1        0.0591
      2 C         142.4471  140.8551  158.3975 C.2     1  UNL1        0.0708
      3 C         142.3217  139.3871  158.6796 C.3     1  UNL1        0.1717
      4 N         142.8057  138.3860  157.6729 N.ar    1  UNL1       -0.2297
      5 N         142.8142  136.8860  157.6733 N.ar    1  UNL1       -0.1636
      6 C         143.4289  136.4257  156.3848 C.ar    1  UNL1        0.1750
      7 C         143.8003  137.6412  155.5881 C.ar    1  UNL1        0.0589
      8 C         143.4151  138.8527  156.3842 C.ar    1  UNL1        0.1311
      9 N         143.5405  140.3206  156.1022 N.pl3   1  UNL1       -0.2996
     10 H         143.9405  140.6270  155.2564 H       1  UNL1        0.1534
     11 C         141.7122  138.9204  159.9684 C.ar    1  UNL1        0.0641
     12 C         140.2452  138.7993  160.2571 C.ar    1  UNL1        0.0164
     13 C         140.0892  138.2970  161.6618 C.ar    1  UNL1        0.0170
     14 C         138.8762  137.9875  162.4882 C.ar    1  UNL1        0.0015
     15 C         139.0338  137.4887  163.8940 C.ar    1  UNL1        0.0001
     16 C         140.4044  137.2993  164.4734 C.ar    1  UNL1        0.0015
     17 C         141.6173  137.6088  163.6470 C.ar    1  UNL1        0.0172
     18 C         141.4598  138.1076  162.2412 C.ar    1  UNL1        0.0598
     19 N         142.4628  138.4929  161.1946 N.ar    1  UNL1       -0.3267
     20 C         143.9546  138.4570  161.3475 C.3     1  UNL1        0.1302
     21 C         141.9631  141.8563  159.4043 C.2     1  UNL1        0.2485
     22 O         140.5321  142.3057  159.3868 O.2     1  UNL1       -0.2701
     23 N         142.9101  142.4080  160.4284 N.am    1  UNL1       -0.2709
     24 C         144.3611  142.0547  160.5683 C.3     1  UNL1        0.0941
     25 C         144.9201  142.8382  161.7187 C.3     1  UNL1        0.0237
     26 C         143.8145  143.6757  162.2899 C.3     1  UNL1        0.0295
     27 C         142.5723  143.4098  161.4924 C.3     1  UNL1        0.1356
     28 C         141.2282  144.0358  161.7191 C.ar    1  UNL1        0.1719
     29 C         140.1624  143.5255  162.6431 C.ar    1  UNL1        0.0553
     30 C         138.9894  144.4564  162.5568 C.ar    1  UNL1        0.1008
     31 C         137.7017  144.3248  163.3147 C.3     1  UNL1        0.0557
     32 N         139.3301  145.5420  161.5794 N.ar    1  UNL1       -0.0817
     33 O         140.7138  145.2820  161.0616 O.2     1  UNL1       -0.3564
     34 C         143.6359  135.0002  155.9664 C.3     1  UNL1        0.4366
     35 F         143.8430  133.5747  155.5479 F       1  UNL1       -0.1643
     36 F         143.5157  135.4052  154.5271 F       1  UNL1       -0.1643
     37 F         143.7562  134.5952  157.4056 F       1  UNL1       -0.1643
     38 C         143.1820  142.7897  156.8268 C.3     1  UNL1        0.1830
     39 C         141.6622  144.8684  157.1718 C.3     1  UNL1        0.1746
     40 O         141.9684  143.5880  156.4529 O.3     1  UNL1       -0.3450
@<TRIPOS>BOND
     1    39    40    1
     2    40    38    1
     3    38     1    1
     4     1     2    2
     5     2    21    1
     6    21    22    2
     7    21    23   am
     8    23    24    1
     9    24    25    1
    10    25    26    1
    11    26    27    1
    12    27    28    1
    13    28    29   ar
    14    29    30   ar
    15    30    31    1
    16    30    32   ar
    17    32    33   ar
    18     2     3    1
    19     3    11    1
    20    11    12   ar
    21    12    13   ar
    22    13    14   ar
    23    14    15   ar
    24    15    16   ar
    25    16    17   ar
    26    17    18   ar
    27    18    19   ar
    28    19    20    1
    29     3     4    1
    30     4     5   ar
    31     5     6   ar
    32     6    34    1
    33    34    35    1
    34    34    36    1
    35    34    37    1
    36     6     7   ar
    37     7     8   ar
    38     8     9    1
    39     9     1    1
    40    27    23    1
    41    33    28   ar
    42    19    11   ar
    43     8     4   ar
    44    18    13   ar
    45     9    10    1
@<TRIPOS>MOLECULE
*****
 40 45 0 0 0
SMALL
GASTEIGER

@<TRIPOS>ATOM
      1 C         144.0231  140.7239  157.3734 C.2     1  UNL1        0.0591
      2 C         143.2835  140.3465  158.6225 C.2     1  UNL1        0.0708
      3 C         142.7094  138.9681  158.7668 C.3     1  UNL1        0.1717
      4 N         142.8751  137.9673  157.6619 N.ar    1  UNL1       -0.2297
      5 N         142.4223  136.5443  157.5205 N.ar    1  UNL1       -0.1636
      6 C         142.8822  136.0423  156.1839 C.ar    1  UNL1        0.1750
      7 C         143.6191  137.1550  155.4992 C.ar    1  UNL1        0.0589
      8 C         143.6148  138.3447  156.4127 C.ar    1  UNL1        0.1311
      9 N         144.1888  139.7230  156.2685 N.pl3   1  UNL1       -0.2996
     10 H         144.6743  139.9707  155.4486 H       1  UNL1        0.1534
     11 C         141.9697  138.5908  160.0160 C.ar    1  UNL1        0.0641
     12 C         140.4825  138.6322  160.2066 C.ar    1  UNL1        0.0164
     13 C         140.1811  138.1728  161.6024 C.ar    1  UNL1        0.0170
     14 C         138.8901  138.0087  162.3483 C.ar    1  UNL1        0.0015
     15 C         138.9001  137.5191  163.7661 C.ar    1  UNL1        0.0001
     16 C         140.2011  137.1937  164.4380 C.ar    1  UNL1        0.0015
     17 C         141.4921  137.3578  163.6921 C.ar    1  UNL1        0.0172
     18 C         141.4821  137.8473  162.2743 C.ar    1  UNL1        0.0598
     19 N         142.5876  138.1057  161.2939 N.ar    1  UNL1       -0.3267
     20 C         144.0534  137.9128  161.5469 C.3     1  UNL1        0.1302
     21 C         143.1178  141.3474  159.7274 C.2     1  UNL1        0.2485
     22 O         144.2030  141.5247  160.7477 O.2     1  UNL1       -0.2701
     23 N         141.8669  142.1709  159.8121 N.am    1  UNL1       -0.2709
     24 C         140.7023  142.1046  158.8692 C.3     1  UNL1        0.0941
     25 C         139.6767  143.0980  159.3288 C.3     1  UNL1        0.0237
     26 C         140.2075  143.7782  160.5558 C.3     1  UNL1        0.0295
     27 C         141.5612  143.2052  160.8544 C.3     1  UNL1        0.1356
     28 C         142.4526  143.5977  161.9952 C.ar    1  UNL1        0.1719
     29 C         142.5672  142.8852  163.3102 C.ar    1  UNL1        0.0553
     30 C         143.5713  143.6187  164.1489 C.ar    1  UNL1        0.1008
     31 C         143.9951  143.2510  165.5400 C.3     1  UNL1        0.0557
     32 N         144.0774  144.7846  163.3524 N.ar    1  UNL1       -0.0817
     33 O         143.3860  144.7716  162.0212 O.2     1  UNL1       -0.3564
     34 C         142.6464  134.6686  155.6292 C.3     1  UNL1        0.4366
     35 F         142.4107  133.2950  155.0746 F       1  UNL1       -0.1643
     36 F         141.2165  135.0264  155.3511 F       1  UNL1       -0.1643
     37 F         144.0763  134.3109  155.9073 F       1  UNL1       -0.1643
     38 C         144.5972  142.1022  157.2290 C.3     1  UNL1        0.1830
     39 C         147.0816  142.5375  156.6062 C.3     1  UNL1        0.1746
     40 O         146.0125  142.3726  157.6454 O.3     1  UNL1       -0.3450
@<TRIPOS>BOND
     1    39    40    1
     2    40    38    1
     3    38     1    1
     4     1     2    2
     5     2    21    1
     6    21    22    2
     7    21    23   am
     8    23    24    1
     9    24    25    1
    10    25    26    1
    11    26    27    1
    12    27    28    1
    13    28    29   ar
    14    29    30   ar
    15    30    31    1
    16    30    32   ar
    17    32    33   ar
    18     2     3    1
    19     3    11    1
    20    11    12   ar
    21    12    13   ar
    22    13    14   ar
    23    14    15   ar
    24    15    16   ar
    25    16    17   ar
    26    17    18   ar
    27    18    19   ar
    28    19    20    1
    29     3     4    1
    30     4     5   ar
    31     5     6   ar
    32     6    34    1
    33    34    35    1
    34    34    36    1
    35    34    37    1
    36     6     7   ar
    37     7     8   ar
    38     8     9    1
    39     9     1    1
    40    27    23    1
    41    33    28   ar
    42    19    11   ar
    43     8     4   ar
    44    18    13   ar
    45     9    10    1
@<TRIPOS>MOLECULE
*****
 40 45 0 0 0
SMALL
GASTEIGER

@<TRIPOS>ATOM
      1 C         142.9152  141.1439  158.7760 C.2     1  UNL1        0.0591
      2 C         142.1392  141.5649  159.9885 C.2     1  UNL1        0.0708
      3 C         141.3077  142.8128  159.9509 C.3     1  UNL1        0.1717
      4 N         141.2524  143.6397  158.7006 N.ar    1  UNL1       -0.2297
      5 N         140.5256  144.9090  158.3681 N.ar    1  UNL1       -0.1636
      6 C         140.8526  145.2725  156.9500 C.ar    1  UNL1        0.1750
      7 C         141.7814  144.2278  156.4061 C.ar    1  UNL1        0.0589
      8 C         142.0285  143.2186  157.4880 C.ar    1  UNL1        0.1311
      9 N         142.8599  141.9707  157.5257 N.pl3   1  UNL1       -0.2996
     10 H         143.3693  141.6944  156.7298 H       1  UNL1        0.1534
     11 C         140.5316  143.2338  161.1635 C.ar    1  UNL1        0.0641
     12 C         139.0868  142.9342  161.4335 C.ar    1  UNL1        0.0164
     13 C         138.7264  143.5436  162.7560 C.ar    1  UNL1        0.0170
     14 C         137.4433  143.5701  163.5325 C.ar    1  UNL1        0.0015
     15 C         137.3823  144.2728  164.8563 C.ar    1  UNL1        0.0001
     16 C         138.6044  144.9489  165.4036 C.ar    1  UNL1        0.0015
     17 C         139.8874  144.9224  164.6270 C.ar    1  UNL1        0.0172
     18 C         139.9484  144.2197  163.3032 C.ar    1  UNL1        0.0598
     19 N         141.0641  144.0283  162.3190 N.ar    1  UNL1       -0.3267
     20 C         142.4661  144.5412  162.4648 C.3     1  UNL1        0.1302
     21 C         142.1945  140.7379  161.2388 C.2     1  UNL1        0.2485
     22 O         143.2355  141.0224  162.2807 O.2     1  UNL1       -0.2701
     23 N         141.2089  139.6266  161.4473 N.am    1  UNL1       -0.2709
     24 C         140.1175  139.2268  160.4991 C.3     1  UNL1        0.0941
     25 C         139.3756  138.0731  161.1063 C.3     1  UNL1        0.0237
     26 C         140.0086  137.7599  162.4296 C.3     1  UNL1        0.0295
     27 C         141.1416  138.7201  162.6403 C.3     1  UNL1        0.1356
     28 C         142.0481  138.7656  163.8345 C.ar    1  UNL1        0.1719
     29 C         141.6291  139.0322  165.2499 C.ar    1  UNL1        0.0553
     30 C         142.8548  138.9839  166.1132 C.ar    1  UNL1        0.1008
     31 C         142.8967  139.1950  167.5976 C.3     1  UNL1        0.0557
     32 N         144.0314  138.6875  165.2313 N.ar    1  UNL1       -0.0817
     33 O         143.5328  138.5526  163.8230 O.2     1  UNL1       -0.3564
     34 C         140.3406  146.4704  156.2064 C.3     1  UNL1        0.4366
     35 F         139.8286  147.6683  155.4628 F       1  UNL1       -0.1643
     36 F         141.0059  145.9781  154.9554 F       1  UNL1       -0.1643
     37 F         139.6753  146.9626  157.4574 F       1  UNL1       -0.1643
     38 C         143.7467  139.8959  158.8136 C.3     1  UNL1        0.1830
     39 C         142.3564  137.9433  157.8113 C.3     1  UNL1        0.1746
     40 O         143.5596  138.8381  157.7668 O.3     1  UNL1       -0.3450
@<TRIPOS>BOND
     1    39    40    1
     2    40    38    1
     3    38     1    1
     4     1     2    2
     5     2    21    1
     6    21    22    2
     7    21    23   am
     8    23    24    1
     9    24    25    1
    10    25    26    1
    11    26    27    1
    12    27    28    1
    13    28    29   ar
    14    29    30   ar
    15    30    31    1
    16    30    32   ar
    17    32    33   ar
    18     2     3    1
    19     3    11    1
    20    11    12   ar
    21    12    13   ar
    22    13    14   ar
    23    14    15   ar
    24    15    16   ar
    25    16    17   ar
    26    17    18   ar
    27    18    19   ar
    28    19    20    1
    29     3     4    1
    30     4     5   ar
    31     5     6   ar
    32     6    34    1
    33    34    35    1
    34    34    36    1
    35    34    37    1
    36     6     7   ar
    37     7     8   ar
    38     8     9    1
    39     9     1    1
    40    27    23    1
    41    33    28   ar
    42    19    11   ar
    43     8     4   ar
    44    18    13   ar
    45     9    10    1
@<TRIPOS>MOLECULE
*****
 40 45 0 0 0
SMALL
GASTEIGER

@<TRIPOS>ATOM
      1 C         142.4095  142.0124  157.4569 C.2     1  UNL1        0.0591
      2 C         141.7867  142.2501  158.8005 C.2     1  UNL1        0.0708
      3 C         140.9575  143.4777  159.0363 C.3     1  UNL1        0.1717
      4 N         140.7514  144.4676  157.9283 N.ar    1  UNL1       -0.2297
      5 N         139.9904  145.7587  157.8647 N.ar    1  UNL1       -0.1636
      6 C         140.1430  146.3189  156.4816 C.ar    1  UNL1        0.1750
      7 C         140.9983  145.3741  155.6905 C.ar    1  UNL1        0.0589
      8 C         141.3743  144.2299  156.5846 C.ar    1  UNL1        0.1311
      9 N         142.2034  143.0023  156.3489 N.pl3   1  UNL1       -0.2996
     10 H         142.6122  142.8463  155.4670 H       1  UNL1        0.1534
     11 C         140.3346  143.7154  160.3800 C.ar    1  UNL1        0.0641
     12 C         140.9049  144.5624  161.4788 C.ar    1  UNL1        0.0164
     13 C         139.9548  144.5182  162.6387 C.ar    1  UNL1        0.0170
     14 C         139.9940  145.1611  163.9934 C.ar    1  UNL1        0.0015
     15 C         138.8758  144.9297  164.9660 C.ar    1  UNL1        0.0001
     16 C         137.7184  144.0553  164.5840 C.ar    1  UNL1        0.0015
     17 C         137.6792  143.4124  163.2294 C.ar    1  UNL1        0.0172
     18 C         138.7974  143.6438  162.2567 C.ar    1  UNL1        0.0598
     19 N         139.0321  143.1477  160.8608 N.ar    1  UNL1       -0.3267
     20 C         138.1238  142.2427  160.0823 C.3     1  UNL1        0.1302
     21 C         141.9928  141.2601  159.9085 C.2     1  UNL1        0.2485
     22 O         141.0181  140.1364  160.1012 O.2     1  UNL1       -0.2701
     23 N         143.1737  141.3939  160.8237 N.am    1  UNL1       -0.2709
     24 C         144.2267  142.4599  160.7541 C.3     1  UNL1        0.0941
     25 C         145.2127  142.2101  161.8565 C.3     1  UNL1        0.0237
     26 C         144.7690  140.9898  162.6075 C.3     1  UNL1        0.0295
     27 C         143.5088  140.4854  161.9691 C.3     1  UNL1        0.1356
     28 C         142.7220  139.2835  162.4005 C.ar    1  UNL1        0.1719
     29 C         141.8603  139.1865  163.6245 C.ar    1  UNL1        0.0553
     30 C         141.2644  137.8106  163.6642 C.ar    1  UNL1        0.1008
     31 C         140.3379  137.2810  164.7182 C.3     1  UNL1        0.0557
     32 N         141.7577  137.0571  162.4646 N.ar    1  UNL1       -0.0817
     33 O         142.6585  137.9674  161.6836 O.2     1  UNL1       -0.3564
     34 C         139.5453  147.5992  155.9780 C.3     1  UNL1        0.4366
     35 F         138.9476  148.8795  155.4744 F       1  UNL1       -0.1643
     36 F         140.2034  147.3831  154.6475 F       1  UNL1       -0.1643
     37 F         138.8872  147.8153  157.3085 F       1  UNL1       -0.1643
     38 C         143.2386  140.7848  157.2211 C.3     1  UNL1        0.1830
     39 C         145.5749  141.9210  157.1908 C.3     1  UNL1        0.1746
     40 O         144.6914  140.7778  157.5942 O.3     1  UNL1       -0.3450
@<TRIPOS>BOND
     1    39    40    1
     2    40    38    1
     3    38     1    1
     4     1     2    2
     5     2    21    1
     6    21    22    2
     7    21    23   am
     8    23    24    1
     9    24    25    1
    10    25    26    1
    11    26    27    1
    12    27    28    1
    13    28    29   ar
    14    29    30   ar
    15    30    31    1
    16    30    32   ar
    17    32    33   ar
    18     2     3    1
    19     3    11    1
    20    11    12   ar
    21    12    13   ar
    22    13    14   ar
    23    14    15   ar
    24    15    16   ar
    25    16    17   ar
    26    17    18   ar
    27    18    19   ar
    28    19    20    1
    29     3     4    1
    30     4     5   ar
    31     5     6   ar
    32     6    34    1
    33    34    35    1
    34    34    36    1
    35    34    37    1
    36     6     7   ar
    37     7     8   ar
    38     8     9    1
    39     9     1    1
    40    27    23    1
    41    33    28   ar
    42    19    11   ar
    43     8     4   ar
    44    18    13   ar
    45     9    10    1
@<TRIPOS>MOLECULE
*****
 40 45 0 0 0
SMALL
GASTEIGER

@<TRIPOS>ATOM
      1 C         141.5556  143.2313  156.7554 C.2     1  UNL1        0.0591
      2 C         141.9817  142.7617  158.1147 C.2     1  UNL1        0.0708
      3 C         143.3851  142.2806  158.3363 C.3     1  UNL1        0.1717
      4 N         144.3624  142.2691  157.1984 N.ar    1  UNL1       -0.2297
      5 N         145.8013  141.8535  157.1153 N.ar    1  UNL1       -0.1636
      6 C         146.2644  142.0663  155.7046 C.ar    1  UNL1        0.1750
      7 C         145.1118  142.6134  154.9158 C.ar    1  UNL1        0.0589
      8 C         143.9363  142.7388  155.8390 C.ar    1  UNL1        0.1311
      9 N         142.5329  143.2199  155.6175 N.pl3   1  UNL1       -0.2996
     10 H         142.2532  143.5281  154.7253 H       1  UNL1        0.1534
     11 C         143.8111  141.8109  159.6957 C.ar    1  UNL1        0.0641
     12 C         144.4393  142.6563  160.7638 C.ar    1  UNL1        0.0164
     13 C         144.7002  141.7813  161.9538 C.ar    1  UNL1        0.0170
     14 C         145.3026  142.0675  163.2974 C.ar    1  UNL1        0.0015
     15 C         145.4380  140.9677  164.3083 C.ar    1  UNL1        0.0001
     16 C         144.9710  139.5816  163.9757 C.ar    1  UNL1        0.0015
     17 C         144.3686  139.2953  162.6322 C.ar    1  UNL1        0.0172
     18 C         144.2332  140.3951  161.6212 C.ar    1  UNL1        0.0598
     19 N         143.6837  140.4135  160.2256 N.ar    1  UNL1       -0.3267
     20 C         143.1080  139.2403  159.4892 C.3     1  UNL1        0.1302
     21 C         141.0043  142.7732  159.2526 C.2     1  UNL1        0.2485
     22 O         140.9349  143.9581  160.1697 O.2     1  UNL1       -0.2701
     23 N         140.0965  141.5997  159.4734 N.am    1  UNL1       -0.2709
     24 C         140.0518  140.3512  158.6433 C.3     1  UNL1        0.0941
     25 C         139.0017  139.4486  159.2198 C.3     1  UNL1        0.0237
     26 C         138.3973  140.1393  160.4063 C.3     1  UNL1        0.0295
     27 C         139.0740  141.4688  160.5630 C.3     1  UNL1        0.1356
     28 C         138.7798  142.4883  161.6231 C.ar    1  UNL1        0.1719
     29 C         139.4247  142.5657  162.9752 C.ar    1  UNL1        0.0553
     30 C         138.8325  143.7347  163.7051 C.ar    1  UNL1        0.1008
     31 C         139.1887  144.1803  165.0923 C.3     1  UNL1        0.0557
     32 N         137.8215  144.3798  162.8041 N.ar    1  UNL1       -0.0817
     33 O         137.7889  143.6095  161.5173 O.2     1  UNL1       -0.3564
     34 C         147.6389  141.7819  155.1755 C.3     1  UNL1        0.4366
     35 F         149.0134  141.4975  154.6464 F       1  UNL1       -0.1643
     36 F         148.2323  142.2193  156.4819 F       1  UNL1       -0.1643
     37 F         147.0455  141.3446  153.8691 F       1  UNL1       -0.1643
     38 C         140.1522  143.7125  156.5338 C.3     1  UNL1        0.1830
     39 C         137.7697  142.7338  156.8745 C.3     1  UNL1        0.1746
     40 O         139.0791  142.7403  156.1426 O.3     1  UNL1       -0.3450
@<TRIPOS>BOND
     1    39    40    1
     2    40    38    1
     3    38     1    1
     4     1     2    2
     5     2    21    1
     6    21    22    2
     7    21    23   am
     8    23    24    1
     9    24    25    1
    10    25    26    1
    11    26    27    1
    12    27    28    1
    13    28    29   ar
    14    29    30   ar
    15    30    31    1
    16    30    32   ar
    17    32    33   ar
    18     2     3    1
    19     3    11    1
    20    11    12   ar
    21    12    13   ar
    22    13    14   ar
    23    14    15   ar
    24    15    16   ar
    25    16    17   ar
    26    17    18   ar
    27    18    19   ar
    28    19    20    1
    29     3     4    1
    30     4     5   ar
    31     5     6   ar
    32     6    34    1
    33    34    35    1
    34    34    36    1
    35    34    37    1
    36     6     7   ar
    37     7     8   ar
    38     8     9    1
    39     9     1    1
    40    27    23    1
    41    33    28   ar
    42    19    11   ar
    43     8     4   ar
    44    18    13   ar
    45     9    10    1
@<TRIPOS>MOLECULE
*****
 40 45 0 0 0
SMALL
GASTEIGER

@<TRIPOS>ATOM
      1 C         139.2593  139.6677  157.6891 C.2     1  UNL1        0.0591
      2 C         140.1149  139.8688  158.9045 C.2     1  UNL1        0.0708
      3 C         141.3439  139.0320  159.1036 C.3     1  UNL1        0.1717
      4 N         141.7170  137.9940  158.0871 N.ar    1  UNL1       -0.2297
      5 N         142.8611  137.0267  158.0138 N.ar    1  UNL1       -0.1636
      6 C         142.7125  136.2277  156.7531 C.ar    1  UNL1        0.1750
      7 C         141.4766  136.7011  156.0472 C.ar    1  UNL1        0.0589
      8 C         140.8613  137.7928  156.8716 C.ar    1  UNL1        0.1311
      9 N         139.6325  138.6296  156.6726 N.pl3   1  UNL1       -0.2996
     10 H         139.0708  138.4976  155.8749 H       1  UNL1        0.1534
     11 C         142.1995  139.2332  160.3191 C.ar    1  UNL1        0.0641
     12 C         142.1228  138.4434  161.5919 C.ar    1  UNL1        0.0164
     13 C         143.1580  138.9817  162.5346 C.ar    1  UNL1        0.0170
     14 C         143.5408  138.5947  163.9323 C.ar    1  UNL1        0.0015
     15 C         144.6400  139.3303  164.6398 C.ar    1  UNL1        0.0001
     16 C         145.3565  140.4529  163.9494 C.ar    1  UNL1        0.0015
     17 C         144.9737  140.8399  162.5517 C.ar    1  UNL1        0.0172
     18 C         143.8744  140.1042  161.8443 C.ar    1  UNL1        0.0598
     19 N         143.2821  140.2597  160.4750 N.ar    1  UNL1       -0.3267
     20 C         143.6991  141.2651  159.4429 C.3     1  UNL1        0.1302
     21 C         139.7417  140.9069  159.9210 C.2     1  UNL1        0.2485
     22 O         140.1415  142.3377  159.7134 O.2     1  UNL1       -0.2701
     23 N         138.9688  140.5142  161.1451 N.am    1  UNL1       -0.2709
     24 C         138.5021  139.1302  161.4867 C.3     1  UNL1        0.0941
     25 C         137.7718  139.1971  162.7952 C.3     1  UNL1        0.0237
     26 C         137.7872  140.6225  163.2622 C.3     1  UNL1        0.0295
     27 C         138.5270  141.4365  162.2424 C.3     1  UNL1        0.1356
     28 C         138.7804  142.9134  162.3083 C.ar    1  UNL1        0.1719
     29 C         140.0316  143.5718  162.8093 C.ar    1  UNL1        0.0553
     30 C         139.8516  145.0566  162.6954 C.ar    1  UNL1        0.1008
     31 C         140.8574  146.0991  163.0846 C.3     1  UNL1        0.0557
     32 N         138.4892  145.3159  162.1240 N.ar    1  UNL1       -0.0817
     33 O         137.8271  143.9913  161.8847 O.2     1  UNL1       -0.3564
     34 C         143.6374  135.1452  156.2811 C.3     1  UNL1        0.4366
     35 F         144.5623  134.0627  155.8091 F       1  UNL1       -0.1643
     36 F         142.7447  134.1118  156.9017 F       1  UNL1       -0.1643
     37 F         144.5301  136.1786  155.6605 F       1  UNL1       -0.1643
     38 C         138.0304  140.5045  157.4901 C.3     1  UNL1        0.1830
     39 C         137.0305  140.7297  155.1027 C.3     1  UNL1        0.1746
     40 O         137.0091  140.1056  156.4666 O.3     1  UNL1       -0.3450
@<TRIPOS>BOND
     1    39    40    1
     2    40    38    1
     3    38     1    1
     4     1     2    2
     5     2    21    1
     6    21    22    2
     7    21    23   am
     8    23    24    1
     9    24    25    1
    10    25    26    1
    11    26    27    1
    12    27    28    1
    13    28    29   ar
    14    29    30   ar
    15    30    31    1
    16    30    32   ar
    17    32    33   ar
    18     2     3    1
    19     3    11    1
    20    11    12   ar
    21    12    13   ar
    22    13    14   ar
    23    14    15   ar
    24    15    16   ar
    25    16    17   ar
    26    17    18   ar
    27    18    19   ar
    28    19    20    1
    29     3     4    1
    30     4     5   ar
    31     5     6   ar
    32     6    34    1
    33    34    35    1
    34    34    36    1
    35    34    37    1
    36     6     7   ar
    37     7     8   ar
    38     8     9    1
    39     9     1    1
    40    27    23    1
    41    33    28   ar
    42    19    11   ar
    43     8     4   ar
    44    18    13   ar
    45     9    10    1
@<TRIPOS>MOLECULE
*****
 40 45 0 0 0
SMALL
GASTEIGER

@<TRIPOS>ATOM
      1 C         143.3592  143.0373  157.6178 C.2     1  UNL1        0.0591
      2 C         142.5184  142.9764  158.8584 C.2     1  UNL1        0.0708
      3 C         141.3486  143.9017  159.0178 C.3     1  UNL1        0.1717
      4 N         141.0196  144.8878  157.9364 N.ar    1  UNL1       -0.2297
      5 N         139.9367  145.9185  157.8135 N.ar    1  UNL1       -0.1636
      6 C         140.1084  146.6163  156.4969 C.ar    1  UNL1        0.1750
      7 C         141.2972  146.0169  155.8060 C.ar    1  UNL1        0.0589
      8 C         141.8604  144.9486  156.6957 C.ar    1  UNL1        0.1311
      9 N         143.0302  144.0233  156.5364 N.pl3   1  UNL1       -0.2996
     10 H         143.5821  144.0632  155.7221 H       1  UNL1        0.1534
     11 C         140.5078  143.8409  160.2585 C.ar    1  UNL1        0.0641
     12 C         140.6602  144.7114  161.4705 C.ar    1  UNL1        0.0164
     13 C         139.6136  144.3073  162.4661 C.ar    1  UNL1        0.0170
     14 C         139.2850  144.8147  163.8389 C.ar    1  UNL1        0.0015
     15 C         138.1572  144.2017  164.6150 C.ar    1  UNL1        0.0001
     16 C         137.3580  143.0814  164.0183 C.ar    1  UNL1        0.0015
     17 C         137.6865  142.5740  162.6455 C.ar    1  UNL1        0.0172
     18 C         138.8143  143.1870  161.8694 C.ar    1  UNL1        0.0598
     19 N         139.3669  142.8987  160.5050 N.ar    1  UNL1       -0.3267
     20 C         138.8666  141.8520  159.5542 C.3     1  UNL1        0.1302
     21 C         142.8475  141.9903  159.9398 C.2     1  UNL1        0.2485
     22 O         143.5253  142.4527  161.1955 O.2     1  UNL1       -0.2701
     23 N         142.4987  140.5419  159.7655 N.am    1  UNL1       -0.2709
     24 C         141.8234  139.9352  158.5714 C.3     1  UNL1        0.0941
     25 C         141.6713  138.4643  158.8225 C.3     1  UNL1        0.0237
     26 C         142.2525  138.1619  160.1718 C.3     1  UNL1        0.0295
     27 C         142.7639  139.4460  160.7546 C.3     1  UNL1        0.1356
     28 C         143.4245  139.6059  162.0917 C.ar    1  UNL1        0.1719
     29 C         142.8348  139.2260  163.4176 C.ar    1  UNL1        0.0553
     30 C         143.8366  139.5591  164.4831 C.ar    1  UNL1        0.1008
     31 C         143.6605  139.3442  165.9571 C.3     1  UNL1        0.0557
     32 N         145.0455  140.1450  163.8158 N.ar    1  UNL1       -0.0817
     33 O         144.7908  140.1739  162.3378 O.2     1  UNL1       -0.3564
     34 C         139.2430  147.7199  155.9645 C.3     1  UNL1        0.4366
     35 F         138.3777  148.8234  155.4321 F       1  UNL1       -0.1643
     36 F         138.8081  148.0525  157.3610 F       1  UNL1       -0.1643
     37 F         139.6779  147.3872  154.5680 F       1  UNL1       -0.1643
     38 C         144.5291  142.1120  157.4584 C.3     1  UNL1        0.1830
     39 C         146.9941  142.5482  156.7632 C.3     1  UNL1        0.1746
     40 O         145.9110  142.5844  157.8004 O.3     1  UNL1       -0.3450
@<TRIPOS>BOND
     1    39    40    1
     2    40    38    1
     3    38     1    1
     4     1     2    2
     5     2    21    1
     6    21    22    2
     7    21    23   am
     8    23    24    1
     9    24    25    1
    10    25    26    1
    11    26    27    1
    12    27    28    1
    13    28    29   ar
    14    29    30   ar
    15    30    31    1
    16    30    32   ar
    17    32    33   ar
    18     2     3    1
    19     3    11    1
    20    11    12   ar
    21    12    13   ar
    22    13    14   ar
    23    14    15   ar
    24    15    16   ar
    25    16    17   ar
    26    17    18   ar
    27    18    19   ar
    28    19    20    1
    29     3     4    1
    30     4     5   ar
    31     5     6   ar
    32     6    34    1
    33    34    35    1
    34    34    36    1
    35    34    37    1
    36     6     7   ar
    37     7     8   ar
    38     8     9    1
    39     9     1    1
    40    27    23    1
    41    33    28   ar
    42    19    11   ar
    43     8     4   ar
    44    18    13   ar
    45     9    10    1
@<TRIPOS>MOLECULE
*****
 40 45 0 0 0
SMALL
GASTEIGER

@<TRIPOS>ATOM
      1 C         141.5529  139.7069  157.9181 C.2     1  UNL1        0.0591
      2 C         141.0873  140.4244  159.1503 C.2     1  UNL1        0.0708
      3 C         139.7227  141.0463  159.1856 C.3     1  UNL1        0.1717
      4 N         138.8238  140.9507  157.9887 N.ar    1  UNL1       -0.2297
      5 N         137.4370  141.4614  157.7317 N.ar    1  UNL1       -0.1636
      6 C         137.0455  141.0594  156.3406 C.ar    1  UNL1        0.1750
      7 C         138.1903  140.3003  155.7378 C.ar    1  UNL1        0.0589
      8 C         139.2893  140.2331  156.7565 C.ar    1  UNL1        0.1311
      9 N         140.6539  139.6112  156.7212 N.pl3   1  UNL1       -0.2996
     10 H         140.9595  139.1403  155.9124 H       1  UNL1        0.1534
     11 C         139.2572  141.7639  160.4179 C.ar    1  UNL1        0.0641
     12 C         139.5753  143.1831  160.7850 C.ar    1  UNL1        0.0164
     13 C         138.9066  143.4845  162.0934 C.ar    1  UNL1        0.0170
     14 C         138.8691  144.7223  162.9398 C.ar    1  UNL1        0.0015
     15 C         138.1003  144.7271  164.2277 C.ar    1  UNL1        0.0001
     16 C         137.3689  143.4942  164.6693 C.ar    1  UNL1        0.0015
     17 C         137.4064  142.2564  163.8229 C.ar    1  UNL1        0.0172
     18 C         138.1752  142.2515  162.5349 C.ar    1  UNL1        0.0598
     19 N         138.3919  141.1881  161.4994 N.ar    1  UNL1       -0.3267
     20 C         137.8402  139.7938  161.5386 C.3     1  UNL1        0.1302
     21 C         141.9864  140.5201  160.3473 C.2     1  UNL1        0.2485
     22 O         142.8843  141.7095  160.5177 O.2     1  UNL1       -0.2701
     23 N         141.9875  139.4263  161.3738 N.am    1  UNL1       -0.2709
     24 C         141.1488  138.1832  161.3384 C.3     1  UNL1        0.0941
     25 C         141.4704  137.3723  162.5586 C.3     1  UNL1        0.0237
     26 C         142.5078  138.1142  163.3480 C.3     1  UNL1        0.0295
     27 C         142.8274  139.3837  162.6158 C.3     1  UNL1        0.1356
     28 C         143.8137  140.4272  163.0494 C.ar    1  UNL1        0.1719
     29 C         143.5793  141.4851  164.0867 C.ar    1  UNL1        0.0553
     30 C         144.8283  142.3078  164.2003 C.ar    1  UNL1        0.1008
     31 C         145.0347  143.4750  165.1196 C.3     1  UNL1        0.0557
     32 N         145.8347  141.7585  163.2331 N.ar    1  UNL1       -0.0817
     33 O         145.2076  140.5962  162.5218 O.2     1  UNL1       -0.3564
     34 C         135.7387  141.3632  155.6699 C.3     1  UNL1        0.4366
     35 F         134.4318  141.6671  154.9992 F       1  UNL1       -0.1643
     36 F         135.0473  140.3869  156.5748 F       1  UNL1       -0.1643
     37 F         136.4300  142.3396  154.7650 F       1  UNL1       -0.1643
     38 C         142.9175  139.0849  157.8828 C.3     1  UNL1        0.1830
     39 C         142.8513  136.5973  157.1362 C.3     1  UNL1        0.1746
     40 O         143.0864  137.6287  158.1998 O.3     1  UNL1       -0.3450
@<TRIPOS>BOND
     1    39    40    1
     2    40    38    1
     3    38     1    1
     4     1     2    2
     5     2    21    1
     6    21    22    2
     7    21    23   am
     8    23    24    1
     9    24    25    1
    10    25    26    1
    11    26    27    1
    12    27    28    1
    13    28    29   ar
    14    29    30   ar
    15    30    31    1
    16    30    32   ar
    17    32    33   ar
    18     2     3    1
    19     3    11    1
    20    11    12   ar
    21    12    13   ar
    22    13    14   ar
    23    14    15   ar
    24    15    16   ar
    25    16    17   ar
    26    17    18   ar
    27    18    19   ar
    28    19    20    1
    29     3     4    1
    30     4     5   ar
    31     5     6   ar
    32     6    34    1
    33    34    35    1
    34    34    36    1
    35    34    37    1
    36     6     7   ar
    37     7     8   ar
    38     8     9    1
    39     9     1    1
    40    27    23    1
    41    33    28   ar
    42    19    11   ar
    43     8     4   ar
    44    18    13   ar
    45     9    10    1
