@<TRIPOS>MOLECULE
*****
 28 31 0 0 0
SMALL
GASTEIGER

@<TRIPOS>ATOM
      1 C         141.4840  138.9861  163.6313 C.ar    1  UNL1        0.0878
      2 C         140.7849  138.1735  162.5820 C.ar    1  UNL1        0.0091
      3 C         139.4115  137.6309  162.8450 C.ar    1  UNL1        0.0194
      4 C         138.7371  137.9008  164.1574 C.ar    1  UNL1        0.0844
      5 N         139.4361  138.7133  165.2067 N.ar    1  UNL1       -0.2576
      6 C         138.7617  138.9832  166.5191 C.ar    1  UNL1        0.2672
      7 O         137.3883  138.4406  166.7821 O.2     1  UNL1       -0.2665
      8 C         139.4607  139.7958  167.5684 C.ar    1  UNL1        0.0742
      9 C         138.7863  140.0657  168.8808 C.ar    1  UNL1        0.0063
     10 C         139.4853  140.8783  169.9301 C.ar    1  UNL1        0.0003
     11 C         140.8588  141.4210  169.6671 C.ar    1  UNL1        0.0015
     12 C         141.5578  142.2335  170.7164 C.ar    1  UNL1        0.0000
     13 C         142.9312  142.7762  170.4534 C.ar    1  UNL1        0.0000
     14 C         143.6056  142.5063  169.1410 C.ar    1  UNL1        0.0000
     15 C         142.9066  141.6937  168.0917 C.ar    1  UNL1        0.0015
     16 C         141.5332  141.1511  168.3547 C.ar    1  UNL1        0.0179
     17 C         140.8341  140.3385  167.3054 C.ar    1  UNL1        0.0875
     18 N         141.5086  140.0686  165.9930 N.ar    1  UNL1       -0.2276
     19 C         140.8096  139.2560  164.9437 C.ar    1  UNL1        0.1543
     20 N         143.9028  139.4768  164.4427 N.am    1  UNL1       -0.2994
     21 C         142.8574  139.5288  163.3683 C.2     1  UNL1        0.2488
     22 O         143.1854  140.1234  162.0308 O.2     1  UNL1       -0.2700
     23 H         143.6876  139.0865  165.3205 H       1  UNL1        0.1498
     24 C         145.2763  140.0194  164.1795 C.3     1  UNL1        0.1065
     25 N         145.7719  141.9845  162.5538 N.3     1  UNL1       -0.3197
     26 C         145.4689  141.4870  163.9361 C.3     1  UNL1        0.0867
     27 H         145.8710  142.9995  162.5719 H       1  UNL1        0.1189
     28 H         145.0101  141.7284  161.9257 H       1  UNL1        0.1189
@<TRIPOS>BOND
     1    25    26    1
     2    26    24    1
     3    24    20    1
     4    20    21   am
     5    21    22    2
     6    21     1    1
     7     1     2   ar
     8     2     3   ar
     9     3     4   ar
    10     4     5   ar
    11     5     6   ar
    12     6     7    2
    13     6     8   ar
    14     8     9   ar
    15     9    10   ar
    16    10    11   ar
    17    11    12   ar
    18    12    13   ar
    19    13    14   ar
    20    14    15   ar
    21    15    16   ar
    22    16    17   ar
    23    17    18   ar
    24    18    19   ar
    25    19     1   ar
    26    19     5   ar
    27    17     8   ar
    28    16    11   ar
    29    25    27    1
    30    25    28    1
    31    20    23    1
@<TRIPOS>MOLECULE
*****
 28 31 0 0 0
SMALL
GASTEIGER

@<TRIPOS>ATOM
      1 C         139.4074  139.8676  167.6967 C.ar    1  UNL1        0.0878
      2 C         138.1417  139.1850  168.1235 C.ar    1  UNL1        0.0091
      3 C         137.4574  138.2254  167.1956 C.ar    1  UNL1        0.0194
      4 C         138.0388  137.9485  165.8409 C.ar    1  UNL1        0.0844
      5 N         139.3044  138.6310  165.4140 N.ar    1  UNL1       -0.2576
      6 C         139.8858  138.3541  164.0593 C.ar    1  UNL1        0.2672
      7 O         139.2015  137.3945  163.1314 O.2     1  UNL1       -0.2665
      8 C         141.1515  139.0367  163.6325 C.ar    1  UNL1        0.0742
      9 C         141.7328  138.7597  162.2778 C.ar    1  UNL1        0.0063
     10 C         142.9985  139.4422  161.8509 C.ar    1  UNL1        0.0003
     11 C         143.6828  140.4018  162.7789 C.ar    1  UNL1        0.0015
     12 C         144.9485  141.0844  162.3520 C.ar    1  UNL1        0.0000
     13 C         145.6327  142.0439  163.2799 C.ar    1  UNL1        0.0000
     14 C         145.0514  142.3209  164.6346 C.ar    1  UNL1        0.0000
     15 C         143.7857  141.6383  165.0615 C.ar    1  UNL1        0.0015
     16 C         143.1015  140.6788  164.1336 C.ar    1  UNL1        0.0179
     17 C         141.8357  139.9962  164.5604 C.ar    1  UNL1        0.0875
     18 N         141.2544  140.2732  165.9151 N.ar    1  UNL1       -0.2276
     19 C         139.9887  139.5906  166.3420 C.ar    1  UNL1        0.1543
     20 N         140.4617  142.1994  168.1451 N.am    1  UNL1       -0.2994
     21 C         140.0916  140.8271  168.6246 C.2     1  UNL1        0.2488
     22 O         140.4059  140.4144  170.0321 O.2     1  UNL1       -0.2700
     23 H         140.2555  142.4703  167.2213 H       1  UNL1        0.1498
     24 C         141.1460  143.1589  169.0731 C.3     1  UNL1        0.1065
     25 N         139.4422  143.2826  171.0305 N.3     1  UNL1       -0.3197
     26 C         140.3383  143.9694  170.0429 C.3     1  UNL1        0.0867
     27 H         138.9728  143.9812  171.6068 H       1  UNL1        0.1189
     28 H         139.9990  142.6693  171.6256 H       1  UNL1        0.1189
@<TRIPOS>BOND
     1    25    26    1
     2    26    24    1
     3    24    20    1
     4    20    21   am
     5    21    22    2
     6    21     1    1
     7     1     2   ar
     8     2     3   ar
     9     3     4   ar
    10     4     5   ar
    11     5     6   ar
    12     6     7    2
    13     6     8   ar
    14     8     9   ar
    15     9    10   ar
    16    10    11   ar
    17    11    12   ar
    18    12    13   ar
    19    13    14   ar
    20    14    15   ar
    21    15    16   ar
    22    16    17   ar
    23    17    18   ar
    24    18    19   ar
    25    19     1   ar
    26    19     5   ar
    27    17     8   ar
    28    16    11   ar
    29    25    27    1
    30    25    28    1
    31    20    23    1
@<TRIPOS>MOLECULE
*****
 28 31 0 0 0
SMALL
GASTEIGER

@<TRIPOS>ATOM
      1 C         142.5365  141.9528  163.5718 C.ar    1  UNL1        0.0878
      2 C         143.1558  141.3629  162.3395 C.ar    1  UNL1        0.0091
      3 C         143.8272  140.0232  162.4052 C.ar    1  UNL1        0.0194
      4 C         143.8793  139.2733  163.7033 C.ar    1  UNL1        0.0844
      5 N         143.2601  139.8631  164.9356 N.ar    1  UNL1       -0.2576
      6 C         143.3122  139.1132  166.2336 C.ar    1  UNL1        0.2672
      7 O         143.9836  137.7735  166.2994 O.2     1  UNL1       -0.2665
      8 C         142.6929  139.7031  167.4660 C.ar    1  UNL1        0.0742
      9 C         142.7451  138.9533  168.7640 C.ar    1  UNL1        0.0063
     10 C         142.1259  139.5431  169.9963 C.ar    1  UNL1        0.0003
     11 C         141.4545  140.8829  169.9306 C.ar    1  UNL1        0.0015
     12 C         140.8353  141.4727  171.1629 C.ar    1  UNL1        0.0000
     13 C         140.1639  142.8125  171.0972 C.ar    1  UNL1        0.0000
     14 C         140.1118  143.5623  169.7991 C.ar    1  UNL1        0.0000
     15 C         140.7310  142.9725  168.5668 C.ar    1  UNL1        0.0015
     16 C         141.4023  141.6328  168.6326 C.ar    1  UNL1        0.0179
     17 C         142.0216  141.0429  167.4002 C.ar    1  UNL1        0.0875
     18 N         141.9695  141.7928  166.1022 N.ar    1  UNL1       -0.2276
     19 C         142.5887  141.2029  164.8699 C.ar    1  UNL1        0.1543
     20 N         140.4562  143.4502  163.9957 N.am    1  UNL1       -0.2994
     21 C         141.8652  143.2926  163.5061 C.2     1  UNL1        0.2488
     22 O         142.6029  144.4747  162.9507 O.2     1  UNL1       -0.2700
     23 H         139.9720  142.6744  164.3602 H       1  UNL1        0.1498
     24 C         139.7848  144.7900  163.9299 C.3     1  UNL1        0.1065
     25 N         140.2034  146.5523  162.0674 N.3     1  UNL1       -0.3197
     26 C         139.4267  145.3850  162.6003 C.3     1  UNL1        0.0867
     27 H         139.8268  146.8253  161.1596 H       1  UNL1        0.1189
     28 H         141.1836  146.2898  161.9639 H       1  UNL1        0.1189
@<TRIPOS>BOND
     1    25    26    1
     2    26    24    1
     3    24    20    1
     4    20    21   am
     5    21    22    2
     6    21     1    1
     7     1     2   ar
     8     2     3   ar
     9     3     4   ar
    10     4     5   ar
    11     5     6   ar
    12     6     7    2
    13     6     8   ar
    14     8     9   ar
    15     9    10   ar
    16    10    11   ar
    17    11    12   ar
    18    12    13   ar
    19    13    14   ar
    20    14    15   ar
    21    15    16   ar
    22    16    17   ar
    23    17    18   ar
    24    18    19   ar
    25    19     1   ar
    26    19     5   ar
    27    17     8   ar
    28    16    11   ar
    29    25    27    1
    30    25    28    1
    31    20    23    1
@<TRIPOS>MOLECULE
*****
 28 31 0 0 0
SMALL
GASTEIGER

@<TRIPOS>ATOM
      1 C         142.3509  143.8728  157.3219 C.ar    1  UNL1        0.0878
      2 C         141.4789  144.4512  156.2471 C.ar    1  UNL1        0.0091
      3 C         140.3277  145.3404  156.6129 C.ar    1  UNL1        0.0194
      4 C         140.0484  145.6514  158.0535 C.ar    1  UNL1        0.0844
      5 N         140.9204  145.0731  159.1283 N.ar    1  UNL1       -0.2576
      6 C         140.6411  145.3841  160.5689 C.ar    1  UNL1        0.2672
      7 O         139.4899  146.2734  160.9347 O.2     1  UNL1       -0.2665
      8 C         141.5132  144.8057  161.6437 C.ar    1  UNL1        0.0742
      9 C         141.2339  145.1167  163.0843 C.ar    1  UNL1        0.0063
     10 C         142.1059  144.5384  164.1591 C.ar    1  UNL1        0.0003
     11 C         143.2572  143.6491  163.7933 C.ar    1  UNL1        0.0015
     12 C         144.1291  143.0708  164.8680 C.ar    1  UNL1        0.0000
     13 C         145.2804  142.1815  164.5022 C.ar    1  UNL1        0.0000
     14 C         145.5596  141.8705  163.0616 C.ar    1  UNL1        0.0000
     15 C         144.6876  142.4488  161.9869 C.ar    1  UNL1        0.0015
     16 C         143.5364  143.3381  162.3527 C.ar    1  UNL1        0.0179
     17 C         142.6644  143.9165  161.2779 C.ar    1  UNL1        0.0875
     18 N         142.9436  143.6055  159.8373 N.ar    1  UNL1       -0.2276
     19 C         142.0717  144.1838  158.7625 C.ar    1  UNL1        0.1543
     20 N         144.8369  143.1762  157.6129 N.am    1  UNL1       -0.2994
     21 C         143.5021  142.9836  156.9561 C.2     1  UNL1        0.2488
     22 O         143.3187  141.9016  155.9334 O.2     1  UNL1       -0.2700
     23 H         144.9573  143.8863  158.2841 H       1  UNL1        0.1498
     24 C         145.9881  142.2868  157.2470 C.3     1  UNL1        0.1065
     25 N         147.9565  143.3996  158.5265 N.3     1  UNL1       -0.3197
     26 C         147.3874  142.8269  157.2623 C.3     1  UNL1        0.0867
     27 H         148.9108  143.7172  158.3564 H       1  UNL1        0.1189
     28 H         147.9610  142.6831  159.2524 H       1  UNL1        0.1189
@<TRIPOS>BOND
     1    25    26    1
     2    26    24    1
     3    24    20    1
     4    20    21   am
     5    21    22    2
     6    21     1    1
     7     1     2   ar
     8     2     3   ar
     9     3     4   ar
    10     4     5   ar
    11     5     6   ar
    12     6     7    2
    13     6     8   ar
    14     8     9   ar
    15     9    10   ar
    16    10    11   ar
    17    11    12   ar
    18    12    13   ar
    19    13    14   ar
    20    14    15   ar
    21    15    16   ar
    22    16    17   ar
    23    17    18   ar
    24    18    19   ar
    25    19     1   ar
    26    19     5   ar
    27    17     8   ar
    28    16    11   ar
    29    25    27    1
    30    25    28    1
    31    20    23    1
@<TRIPOS>MOLECULE
*****
 28 31 0 0 0
SMALL
GASTEIGER

@<TRIPOS>ATOM
      1 C         139.5110  140.0961  167.3760 C.ar    1  UNL1        0.0878
      2 C         139.1062  139.8589  168.8008 C.ar    1  UNL1        0.0091
      3 C         139.9419  140.4075  169.9191 C.ar    1  UNL1        0.0194
      4 C         141.1823  141.1932  169.6128 C.ar    1  UNL1        0.0844
      5 N         141.5871  141.4305  168.1881 N.ar    1  UNL1       -0.2576
      6 C         142.8276  142.2162  167.8818 C.ar    1  UNL1        0.2672
      7 O         143.6632  142.7648  169.0001 O.2     1  UNL1       -0.2665
      8 C         143.2324  142.4535  166.4570 C.ar    1  UNL1        0.0742
      9 C         144.4728  143.2392  166.1506 C.ar    1  UNL1        0.0063
     10 C         144.8777  143.4765  164.7259 C.ar    1  UNL1        0.0003
     11 C         144.0420  142.9279  163.6075 C.ar    1  UNL1        0.0015
     12 C         144.4468  143.1651  162.1828 C.ar    1  UNL1        0.0000
     13 C         143.6112  142.6166  161.0644 C.ar    1  UNL1        0.0000
     14 C         142.3707  141.8308  161.3708 C.ar    1  UNL1        0.0000
     15 C         141.9659  141.5936  162.7955 C.ar    1  UNL1        0.0015
     16 C         142.8016  142.1421  163.9138 C.ar    1  UNL1        0.0179
     17 C         142.3968  141.9049  165.3386 C.ar    1  UNL1        0.0875
     18 N         141.1563  141.1191  165.6450 N.ar    1  UNL1       -0.2276
     19 C         140.7515  140.8819  167.0696 C.ar    1  UNL1        0.1543
     20 N         139.0307  139.8582  164.8338 N.am    1  UNL1       -0.2994
     21 C         138.6754  139.5476  166.2576 C.2     1  UNL1        0.2488
     22 O         137.4844  138.6883  166.5631 O.2     1  UNL1       -0.2700
     23 H         139.8124  140.4222  164.6333 H       1  UNL1        0.1498
     24 C         138.1950  139.3096  163.7154 C.3     1  UNL1        0.1065
     25 N         136.7376  141.2818  162.8573 N.3     1  UNL1       -0.3197
     26 C         137.7531  140.2085  162.5989 C.3     1  UNL1        0.0867
     27 H         136.5561  141.7932  161.9936 H       1  UNL1        0.1189
     28 H         137.0946  141.9245  163.5643 H       1  UNL1        0.1189
@<TRIPOS>BOND
     1    25    26    1
     2    26    24    1
     3    24    20    1
     4    20    21   am
     5    21    22    2
     6    21     1    1
     7     1     2   ar
     8     2     3   ar
     9     3     4   ar
    10     4     5   ar
    11     5     6   ar
    12     6     7    2
    13     6     8   ar
    14     8     9   ar
    15     9    10   ar
    16    10    11   ar
    17    11    12   ar
    18    12    13   ar
    19    13    14   ar
    20    14    15   ar
    21    15    16   ar
    22    16    17   ar
    23    17    18   ar
    24    18    19   ar
    25    19     1   ar
    26    19     5   ar
    27    17     8   ar
    28    16    11   ar
    29    25    27    1
    30    25    28    1
    31    20    23    1
@<TRIPOS>MOLECULE
*****
 28 31 0 0 0
SMALL
GASTEIGER

@<TRIPOS>ATOM
      1 C         142.6542  140.2741  162.0612 C.ar    1  UNL1        0.0878
      2 C         142.7141  139.7406  160.6605 C.ar    1  UNL1        0.0091
      3 C         141.7057  138.7307  160.1988 C.ar    1  UNL1        0.0194
      4 C         140.6373  138.2543  161.1377 C.ar    1  UNL1        0.0844
      5 N         140.5773  138.7877  162.5383 N.ar    1  UNL1       -0.2576
      6 C         139.5089  138.3113  163.4772 C.ar    1  UNL1        0.2672
      7 O         138.5005  137.3014  163.0155 O.2     1  UNL1       -0.2665
      8 C         139.4490  138.8448  164.8779 C.ar    1  UNL1        0.0742
      9 C         138.3806  138.3684  165.8168 C.ar    1  UNL1        0.0063
     10 C         138.3206  138.9018  167.2174 C.ar    1  UNL1        0.0003
     11 C         139.3290  139.9117  167.6792 C.ar    1  UNL1        0.0015
     12 C         139.2690  140.4452  169.0798 C.ar    1  UNL1        0.0000
     13 C         140.2775  141.4550  169.5416 C.ar    1  UNL1        0.0000
     14 C         141.3459  141.9315  168.6027 C.ar    1  UNL1        0.0000
     15 C         141.4058  141.3980  167.2020 C.ar    1  UNL1        0.0015
     16 C         140.3974  140.3882  166.7403 C.ar    1  UNL1        0.0179
     17 C         140.4574  139.8547  165.3396 C.ar    1  UNL1        0.0875
     18 N         141.5258  140.3311  164.4007 N.ar    1  UNL1       -0.2276
     19 C         141.5858  139.7977  163.0001 C.ar    1  UNL1        0.1543
     20 N         143.2054  142.5717  163.1415 N.am    1  UNL1       -0.2994
     21 C         143.6626  141.2840  162.5229 C.2     1  UNL1        0.2488
     22 O         145.1283  141.0061  162.3661 O.2     1  UNL1       -0.2700
     23 H         142.2434  142.7541  163.2444 H       1  UNL1        0.1498
     24 C         144.2139  143.5816  163.6032 C.3     1  UNL1        0.1065
     25 N         142.4873  145.4930  163.2635 N.3     1  UNL1       -0.3197
     26 C         143.8119  145.0158  163.7808 C.3     1  UNL1        0.0867
     27 H         142.3798  146.4863  163.4692 H       1  UNL1        0.1189
     28 H         141.7374  144.9692  163.7148 H       1  UNL1        0.1189
@<TRIPOS>BOND
     1    25    26    1
     2    26    24    1
     3    24    20    1
     4    20    21   am
     5    21    22    2
     6    21     1    1
     7     1     2   ar
     8     2     3   ar
     9     3     4   ar
    10     4     5   ar
    11     5     6   ar
    12     6     7    2
    13     6     8   ar
    14     8     9   ar
    15     9    10   ar
    16    10    11   ar
    17    11    12   ar
    18    12    13   ar
    19    13    14   ar
    20    14    15   ar
    21    15    16   ar
    22    16    17   ar
    23    17    18   ar
    24    18    19   ar
    25    19     1   ar
    26    19     5   ar
    27    17     8   ar
    28    16    11   ar
    29    25    27    1
    30    25    28    1
    31    20    23    1
@<TRIPOS>MOLECULE
*****
 28 31 0 0 0
SMALL
GASTEIGER

@<TRIPOS>ATOM
      1 C         141.5590  143.7656  161.1191 C.ar    1  UNL1        0.0878
      2 C         140.9275  144.9329  160.4199 C.ar    1  UNL1        0.0091
      3 C         139.9770  145.8261  161.1606 C.ar    1  UNL1        0.0194
      4 C         139.6579  145.5522  162.6004 C.ar    1  UNL1        0.0844
      5 N         140.2893  144.3850  163.2996 N.ar    1  UNL1       -0.2576
      6 C         139.9703  144.1110  164.7394 C.ar    1  UNL1        0.2672
      7 O         139.0198  145.0042  165.4801 O.2     1  UNL1       -0.2665
      8 C         140.6017  142.9437  165.4386 C.ar    1  UNL1        0.0742
      9 C         140.2827  142.6698  166.8785 C.ar    1  UNL1        0.0063
     10 C         140.9141  141.5026  167.5777 C.ar    1  UNL1        0.0003
     11 C         141.8646  140.6093  166.8370 C.ar    1  UNL1        0.0015
     12 C         142.4961  139.4421  167.5362 C.ar    1  UNL1        0.0000
     13 C         143.4466  138.5488  166.7955 C.ar    1  UNL1        0.0000
     14 C         143.7656  138.8228  165.3557 C.ar    1  UNL1        0.0000
     15 C         143.1342  139.9900  164.6565 C.ar    1  UNL1        0.0015
     16 C         142.1837  140.8832  165.3972 C.ar    1  UNL1        0.0179
     17 C         141.5522  142.0505  164.6980 C.ar    1  UNL1        0.0875
     18 N         141.8713  142.3244  163.2581 N.ar    1  UNL1       -0.2276
     19 C         141.2399  143.4916  162.5590 C.ar    1  UNL1        0.1543
     20 N         142.3172  141.3850  160.4065 N.am    1  UNL1       -0.2994
     21 C         142.5095  142.8724  160.3785 C.2     1  UNL1        0.2488
     22 O         143.6524  143.4665  159.6097 O.2     1  UNL1       -0.2700
     23 H         141.5671  140.9951  160.9110 H       1  UNL1        0.1498
     24 C         143.2678  140.4917  159.6658 C.3     1  UNL1        0.1065
     25 N         144.4745  139.0353  161.4469 N.3     1  UNL1       -0.3197
     26 C         143.6165  139.1427  160.2213 C.3     1  UNL1        0.0867
     27 H         144.6095  138.0520  161.6823 H       1  UNL1        0.1189
     28 H         144.0176  139.5114  162.2247 H       1  UNL1        0.1189
@<TRIPOS>BOND
     1    25    26    1
     2    26    24    1
     3    24    20    1
     4    20    21   am
     5    21    22    2
     6    21     1    1
     7     1     2   ar
     8     2     3   ar
     9     3     4   ar
    10     4     5   ar
    11     5     6   ar
    12     6     7    2
    13     6     8   ar
    14     8     9   ar
    15     9    10   ar
    16    10    11   ar
    17    11    12   ar
    18    12    13   ar
    19    13    14   ar
    20    14    15   ar
    21    15    16   ar
    22    16    17   ar
    23    17    18   ar
    24    18    19   ar
    25    19     1   ar
    26    19     5   ar
    27    17     8   ar
    28    16    11   ar
    29    25    27    1
    30    25    28    1
    31    20    23    1
@<TRIPOS>MOLECULE
*****
 28 31 0 0 0
SMALL
GASTEIGER

@<TRIPOS>ATOM
      1 C         143.2392  139.4830  165.4285 C.ar    1  UNL1        0.0878
      2 C         143.5343  138.6148  166.6156 C.ar    1  UNL1        0.0091
      3 C         142.8737  138.8953  167.9327 C.ar    1  UNL1        0.0194
      4 C         141.9179  140.0440  168.0628 C.ar    1  UNL1        0.0844
      5 N         141.6228  140.9122  166.8758 N.ar    1  UNL1       -0.2576
      6 C         140.6670  142.0609  167.0059 C.ar    1  UNL1        0.2672
      7 O         140.0063  142.3414  168.3230 O.2     1  UNL1       -0.2665
      8 C         140.3719  142.9291  165.8188 C.ar    1  UNL1        0.0742
      9 C         139.4161  144.0779  165.9488 C.ar    1  UNL1        0.0063
     10 C         139.1210  144.9461  164.7618 C.ar    1  UNL1        0.0003
     11 C         139.7816  144.6656  163.4446 C.ar    1  UNL1        0.0015
     12 C         139.4865  145.5338  162.2576 C.ar    1  UNL1        0.0000
     13 C         140.1472  145.2533  160.9405 C.ar    1  UNL1        0.0000
     14 C         141.1030  144.1046  160.8104 C.ar    1  UNL1        0.0000
     15 C         141.3981  143.2364  161.9975 C.ar    1  UNL1        0.0015
     16 C         140.7374  143.5169  163.3146 C.ar    1  UNL1        0.0179
     17 C         141.0325  142.6486  164.5017 C.ar    1  UNL1        0.0875
     18 N         141.9883  141.4999  164.3716 N.ar    1  UNL1       -0.2276
     19 C         142.2834  140.6317  165.5586 C.ar    1  UNL1        0.1543
     20 N         143.1725  138.4189  163.0593 N.am    1  UNL1       -0.2994
     21 C         143.8999  139.2025  164.1114 C.2     1  UNL1        0.2488
     22 O         145.2880  139.7055  163.8464 O.2     1  UNL1       -0.2700
     23 H         142.2615  138.0888  163.2332 H       1  UNL1        0.1498
     24 C         143.8332  138.1384  161.7421 C.3     1  UNL1        0.1065
     25 N         144.1062  140.6055  160.9747 N.3     1  UNL1       -0.3197
     26 C         143.8062  139.1711  160.6546 C.3     1  UNL1        0.0867
     27 H         144.0432  141.1642  160.1236 H       1  UNL1        0.1189
     28 H         145.0478  140.6781  161.3601 H       1  UNL1        0.1189
@<TRIPOS>BOND
     1    25    26    1
     2    26    24    1
     3    24    20    1
     4    20    21   am
     5    21    22    2
     6    21     1    1
     7     1     2   ar
     8     2     3   ar
     9     3     4   ar
    10     4     5   ar
    11     5     6   ar
    12     6     7    2
    13     6     8   ar
    14     8     9   ar
    15     9    10   ar
    16    10    11   ar
    17    11    12   ar
    18    12    13   ar
    19    13    14   ar
    20    14    15   ar
    21    15    16   ar
    22    16    17   ar
    23    17    18   ar
    24    18    19   ar
    25    19     1   ar
    26    19     5   ar
    27    17     8   ar
    28    16    11   ar
    29    25    27    1
    30    25    28    1
    31    20    23    1
@<TRIPOS>MOLECULE
*****
 28 31 0 0 0
SMALL
GASTEIGER

@<TRIPOS>ATOM
      1 C         142.4945  144.2532  163.3671 C.ar    1  UNL1        0.0878
      2 C         143.5952  144.9939  164.0671 C.ar    1  UNL1        0.0091
      3 C         144.3775  144.3213  165.1559 C.ar    1  UNL1        0.0194
      4 C         144.0592  142.9080  165.5448 C.ar    1  UNL1        0.0844
      5 N         142.9586  142.1673  164.8449 N.ar    1  UNL1       -0.2576
      6 C         142.6403  140.7540  165.2337 C.ar    1  UNL1        0.2672
      7 O         143.4226  140.0814  166.3226 O.2     1  UNL1       -0.2665
      8 C         141.5397  140.0132  164.5337 C.ar    1  UNL1        0.0742
      9 C         141.2214  138.5999  164.9226 C.ar    1  UNL1        0.0063
     10 C         140.1208  137.8592  164.2227 C.ar    1  UNL1        0.0003
     11 C         139.3384  138.5318  163.1338 C.ar    1  UNL1        0.0015
     12 C         138.2378  137.7911  162.4339 C.ar    1  UNL1        0.0000
     13 C         137.4555  138.4636  161.3450 C.ar    1  UNL1        0.0000
     14 C         137.7738  139.8770  160.9562 C.ar    1  UNL1        0.0000
     15 C         138.8744  140.6177  161.6561 C.ar    1  UNL1        0.0015
     16 C         139.6567  139.9451  162.7449 C.ar    1  UNL1        0.0179
     17 C         140.7574  140.6858  163.4449 C.ar    1  UNL1        0.0875
     18 N         141.0756  142.0991  163.0560 N.ar    1  UNL1       -0.2276
     19 C         142.1762  142.8399  163.7560 C.ar    1  UNL1        0.1543
     20 N         142.0266  144.6364  160.8404 N.am    1  UNL1       -0.2994
     21 C         141.7122  144.9258  162.2783 C.2     1  UNL1        0.2488
     22 O         140.6154  145.8878  162.6273 O.2     1  UNL1       -0.2700
     23 H         142.7464  144.0051  160.6113 H       1  UNL1        0.1498
     24 C         141.2442  145.3091  159.7516 C.3     1  UNL1        0.1065
     25 N         142.4900  146.2764  157.6870 N.3     1  UNL1       -0.3197
     26 C         141.6850  145.1824  158.3234 C.3     1  UNL1        0.0867
     27 H         142.7008  146.0256  156.7211 H       1  UNL1        0.1189
     28 H         143.3607  146.4022  158.2034 H       1  UNL1        0.1189
@<TRIPOS>BOND
     1    25    26    1
     2    26    24    1
     3    24    20    1
     4    20    21   am
     5    21    22    2
     6    21     1    1
     7     1     2   ar
     8     2     3   ar
     9     3     4   ar
    10     4     5   ar
    11     5     6   ar
    12     6     7    2
    13     6     8   ar
    14     8     9   ar
    15     9    10   ar
    16    10    11   ar
    17    11    12   ar
    18    12    13   ar
    19    13    14   ar
    20    14    15   ar
    21    15    16   ar
    22    16    17   ar
    23    17    18   ar
    24    18    19   ar
    25    19     1   ar
    26    19     5   ar
    27    17     8   ar
    28    16    11   ar
    29    25    27    1
    30    25    28    1
    31    20    23    1
