@<TRIPOS>MOLECULE
*****
 37 41 0 0 0
SMALL
GASTEIGER

@<TRIPOS>ATOM
      1 C         140.1685  139.7375  159.6310 C.ar    1  UNL1        0.1740
      2 N         140.8701  138.6749  158.8382 N.ar    1  UNL1       -0.2259
      3 C         140.9395  138.7773  157.3433 C.ar    1  UNL1        0.0830
      4 C         140.3074  139.9423  156.6412 C.ar    1  UNL1        0.0199
      5 C         139.6058  141.0050  157.4340 C.ar    1  UNL1        0.0141
      6 C         139.5364  140.9026  158.9288 C.ar    1  UNL1        0.1042
      7 C         143.2354  141.3419  162.6476 C.ar    1  UNL1        0.2089
      8 N         142.5229  140.8873  163.8868 N.ar    1  UNL1       -0.1500
      9 N         141.2612  140.1927  163.4676 N.ar    1  UNL1       -0.2060
     10 C         141.1941  140.2179  161.9693 C.ar    1  UNL1        0.1983
     11 N         140.0990  139.6352  161.1258 N.2     1  UNL1       -0.2011
     12 S         142.4141  140.9282  161.4625 S.2     1  UNL1       -0.0214
     13 C         140.2451  139.5802  164.3855 C.ar    1  UNL1        0.0849
     14 C         139.9534  138.1110  164.3079 C.ar    1  UNL1        0.0192
     15 C         138.9373  137.4986  165.2258 C.ar    1  UNL1        0.0015
     16 C         138.2131  138.3555  166.2214 C.ar    1  UNL1        0.0001
     17 C         138.5049  139.8248  166.2990 C.ar    1  UNL1        0.0015
     18 C         139.5209  140.4372  165.3811 C.ar    1  UNL1        0.0192
     19 C         144.5402  142.0806  162.6016 C.2     1  UNL1        0.3673
     20 O         145.8189  141.3647  162.9214 O.2     1  UNL1       -0.2425
     21 O         144.5661  143.5350  162.2357 O.3     1  UNL1       -0.4440
     22 C         143.6275  145.1662  164.0268 C.3     1  UNL1        0.0513
     23 C         143.4789  144.4492  162.7177 C.3     1  UNL1        0.2090
     24 C         141.6411  137.7146  156.5506 C.ar    1  UNL1        0.0177
     25 C         140.8444  136.6667  155.8312 C.ar    1  UNL1        0.0015
     26 C         141.5459  135.6041  155.0384 C.ar    1  UNL1        0.0000
     27 C         143.0441  135.5891  154.9649 C.ar    1  UNL1        0.0000
     28 C         143.8407  136.6369  155.6843 C.ar    1  UNL1        0.0000
     29 C         143.1392  137.6997  156.4772 C.ar    1  UNL1        0.0015
     30 C         138.9737  142.1701  156.7318 C.ar    1  UNL1        0.0008
     31 C         139.7887  143.3902  156.4201 C.ar    1  UNL1        0.0000
     32 C         139.1566  144.5552  155.7180 C.ar    1  UNL1        0.0000
     33 C         137.7094  144.5002  155.3274 C.ar    1  UNL1        0.0000
     34 C         136.8943  143.2801  155.6391 C.ar    1  UNL1        0.0000
     35 C         137.5265  142.1151  156.3413 C.ar    1  UNL1        0.0000
     36 C         138.8348  141.9654  159.7216 C.1     1  UNL1        0.1035
     37 N         138.1332  143.0281  160.5143 N.1     1  UNL1       -0.1907
@<TRIPOS>BOND
     1    22    23    1
     2    23    21    1
     3    21    19    1
     4    19    20    2
     5    19     7    1
     6     7     8   ar
     7     8     9   ar
     8     9    13    1
     9    13    14   ar
    10    14    15   ar
    11    15    16   ar
    12    16    17   ar
    13    17    18   ar
    14     9    10   ar
    15    10    11    2
    16    11     1    1
    17     1     2   ar
    18     2     3   ar
    19     3    24    1
    20    24    25   ar
    21    25    26   ar
    22    26    27   ar
    23    27    28   ar
    24    28    29   ar
    25     3     4   ar
    26     4     5   ar
    27     5    30    1
    28    30    31   ar
    29    31    32   ar
    30    32    33   ar
    31    33    34   ar
    32    34    35   ar
    33     5     6   ar
    34     6    36    1
    35    36    37    3
    36    10    12   ar
    37    12     7   ar
    38    18    13   ar
    39     6     1   ar
    40    29    24   ar
    41    35    30   ar
@<TRIPOS>MOLECULE
*****
 37 41 0 0 0
SMALL
GASTEIGER

@<TRIPOS>ATOM
      1 C         139.6188  139.3702  159.1668 C.ar    1  UNL1        0.1740
      2 N         138.5380  139.9415  158.2976 N.ar    1  UNL1       -0.2259
      3 C         138.6387  139.8306  156.8051 C.ar    1  UNL1        0.0830
      4 C         139.8203  139.1485  156.1818 C.ar    1  UNL1        0.0199
      5 C         140.9011  138.5773  157.0509 C.ar    1  UNL1        0.0141
      6 C         140.8005  138.6881  158.5433 C.ar    1  UNL1        0.1042
      7 C         140.9971  142.8946  161.7666 C.ar    1  UNL1        0.2089
      8 N         140.5908  142.3124  163.0879 N.ar    1  UNL1       -0.1500
      9 N         139.9873  140.9628  162.8340 N.ar    1  UNL1       -0.2060
     10 C         140.0207  140.7109  161.3557 C.ar    1  UNL1        0.1983
     11 N         139.5183  139.4811  160.6592 N.2     1  UNL1       -0.2011
     12 S         140.6448  141.9048  160.6960 S.2     1  UNL1       -0.0214
     13 C         139.4456  140.0290  163.8755 C.ar    1  UNL1        0.0849
     14 C         139.7967  138.5714  163.8314 C.ar    1  UNL1        0.0192
     15 C         139.2550  137.6377  164.8729 C.ar    1  UNL1        0.0015
     16 C         138.3622  138.1617  165.9585 C.ar    1  UNL1        0.0001
     17 C         138.0112  139.6193  166.0026 C.ar    1  UNL1        0.0015
     18 C         138.5529  140.5530  164.9611 C.ar    1  UNL1        0.0192
     19 C         141.6424  144.2318  161.5534 C.2     1  UNL1        0.3673
     20 O         140.7934  145.4601  161.4110 O.2     1  UNL1       -0.2425
     21 O         143.1368  144.3406  161.4824 O.3     1  UNL1       -0.4440
     22 C         143.4243  145.0434  163.9670 C.3     1  UNL1        0.0513
     23 C         143.9487  144.3518  162.7436 C.3     1  UNL1        0.2090
     24 C         137.5578  140.4018  155.9360 C.ar    1  UNL1        0.0177
     25 C         136.9699  139.5761  154.8302 C.ar    1  UNL1        0.0015
     26 C         135.8891  140.1473  153.9610 C.ar    1  UNL1        0.0000
     27 C         135.3960  141.5441  154.1976 C.ar    1  UNL1        0.0000
     28 C         135.9839  142.3697  155.3034 C.ar    1  UNL1        0.0000
     29 C         137.0648  141.7986  156.1727 C.ar    1  UNL1        0.0015
     30 C         142.0827  137.8951  156.4274 C.ar    1  UNL1        0.0008
     31 C         143.2546  138.7051  155.9576 C.ar    1  UNL1        0.0000
     32 C         144.4361  138.0229  155.3342 C.ar    1  UNL1        0.0000
     33 C         144.4458  136.5309  155.1806 C.ar    1  UNL1        0.0000
     34 C         143.2739  135.7209  155.6504 C.ar    1  UNL1        0.0000
     35 C         142.0924  136.4031  156.2738 C.ar    1  UNL1        0.0000
     36 C         141.8814  138.1169  159.4125 C.1     1  UNL1        0.1035
     37 N         142.9623  137.5456  160.2816 N.1     1  UNL1       -0.1907
@<TRIPOS>BOND
     1    22    23    1
     2    23    21    1
     3    21    19    1
     4    19    20    2
     5    19     7    1
     6     7     8   ar
     7     8     9   ar
     8     9    13    1
     9    13    14   ar
    10    14    15   ar
    11    15    16   ar
    12    16    17   ar
    13    17    18   ar
    14     9    10   ar
    15    10    11    2
    16    11     1    1
    17     1     2   ar
    18     2     3   ar
    19     3    24    1
    20    24    25   ar
    21    25    26   ar
    22    26    27   ar
    23    27    28   ar
    24    28    29   ar
    25     3     4   ar
    26     4     5   ar
    27     5    30    1
    28    30    31   ar
    29    31    32   ar
    30    32    33   ar
    31    33    34   ar
    32    34    35   ar
    33     5     6   ar
    34     6    36    1
    35    36    37    3
    36    10    12   ar
    37    12     7   ar
    38    18    13   ar
    39     6     1   ar
    40    29    24   ar
    41    35    30   ar
@<TRIPOS>MOLECULE
*****
 37 41 0 0 0
SMALL
GASTEIGER

@<TRIPOS>ATOM
      1 C         143.1341  138.6802  158.9051 C.ar    1  UNL1        0.1740
      2 N         142.7620  137.3985  158.2206 N.ar    1  UNL1       -0.2259
      3 C         142.8894  137.2794  156.7308 C.ar    1  UNL1        0.0830
      4 C         143.3890  138.4420  155.9254 C.ar    1  UNL1        0.0199
      5 C         143.7612  139.7238  156.6099 C.ar    1  UNL1        0.0141
      6 C         143.6338  139.8429  158.0997 C.ar    1  UNL1        0.1042
      7 C         139.4147  139.9916  161.2558 C.ar    1  UNL1        0.2089
      8 N         140.0162  139.8718  162.6246 N.ar    1  UNL1       -0.1500
      9 N         141.4350  139.4106  162.4688 N.ar    1  UNL1       -0.2060
     10 C         141.7104  139.2454  161.0036 C.ar    1  UNL1        0.1983
     11 N         143.0068  138.7994  160.3949 N.2     1  UNL1       -0.2011
     12 S         140.4618  139.6045  160.2539 S.2     1  UNL1       -0.0214
     13 C         142.4077  139.1588  163.5826 C.ar    1  UNL1        0.0849
     14 C         143.8126  139.6747  163.4825 C.ar    1  UNL1        0.0192
     15 C         144.7851  139.4229  164.5963 C.ar    1  UNL1        0.0015
     16 C         144.3528  138.6552  165.8103 C.ar    1  UNL1        0.0001
     17 C         142.9479  138.1393  165.9104 C.ar    1  UNL1        0.0015
     18 C         141.9753  138.3911  164.7966 C.ar    1  UNL1        0.0192
     19 C         138.0123  140.4228  160.9436 C.2     1  UNL1        0.3673
     20 O         137.2869  139.8259  159.7743 O.2     1  UNL1       -0.2425
     21 O         137.3355  141.4511  161.8007 O.3     1  UNL1       -0.4440
     22 C         137.7391  143.5983  163.2065 C.3     1  UNL1        0.0513
     23 C         137.9287  142.8220  161.9371 C.3     1  UNL1        0.2090
     24 C         142.5172  135.9976  156.0463 C.ar    1  UNL1        0.0177
     25 C         141.8105  136.0315  154.7236 C.ar    1  UNL1        0.0015
     26 C         141.4384  134.7497  154.0391 C.ar    1  UNL1        0.0000
     27 C         141.7728  133.4341  154.6772 C.ar    1  UNL1        0.0000
     28 C         142.4795  133.4002  155.9999 C.ar    1  UNL1        0.0000
     29 C         142.8518  134.6820  156.6845 C.ar    1  UNL1        0.0015
     30 C         144.2608  140.8865  155.8045 C.ar    1  UNL1        0.0008
     31 C         143.2918  141.8951  155.2625 C.ar    1  UNL1        0.0000
     32 C         143.7915  143.0577  154.4571 C.ar    1  UNL1        0.0000
     33 C         145.2601  143.2117  154.1937 C.ar    1  UNL1        0.0000
     34 C         146.2291  142.2031  154.7357 C.ar    1  UNL1        0.0000
     35 C         145.7294  141.0405  155.5411 C.ar    1  UNL1        0.0000
     36 C         144.0060  141.1248  158.7842 C.1     1  UNL1        0.1035
     37 N         144.3781  142.4065  159.4687 N.1     1  UNL1       -0.1907
@<TRIPOS>BOND
     1    22    23    1
     2    23    21    1
     3    21    19    1
     4    19    20    2
     5    19     7    1
     6     7     8   ar
     7     8     9   ar
     8     9    13    1
     9    13    14   ar
    10    14    15   ar
    11    15    16   ar
    12    16    17   ar
    13    17    18   ar
    14     9    10   ar
    15    10    11    2
    16    11     1    1
    17     1     2   ar
    18     2     3   ar
    19     3    24    1
    20    24    25   ar
    21    25    26   ar
    22    26    27   ar
    23    27    28   ar
    24    28    29   ar
    25     3     4   ar
    26     4     5   ar
    27     5    30    1
    28    30    31   ar
    29    31    32   ar
    30    32    33   ar
    31    33    34   ar
    32    34    35   ar
    33     5     6   ar
    34     6    36    1
    35    36    37    3
    36    10    12   ar
    37    12     7   ar
    38    18    13   ar
    39     6     1   ar
    40    29    24   ar
    41    35    30   ar
@<TRIPOS>MOLECULE
*****
 37 41 0 0 0
SMALL
GASTEIGER

@<TRIPOS>ATOM
      1 C         139.1046  143.3804  158.2371 C.ar    1  UNL1        0.1740
      2 N         139.4908  144.5577  157.3916 N.ar    1  UNL1       -0.2259
      3 C         139.3680  144.4814  155.8986 C.ar    1  UNL1        0.0830
      4 C         138.8589  143.2278  155.2511 C.ar    1  UNL1        0.0199
      5 C         138.4727  142.0505  156.0965 C.ar    1  UNL1        0.0141
      6 C         138.5955  142.1268  157.5895 C.ar    1  UNL1        0.1042
      7 C         142.9149  142.7625  160.7229 C.ar    1  UNL1        0.2089
      8 N         142.2892  142.9833  162.0682 N.ar    1  UNL1       -0.1500
      9 N         140.8316  143.2702  161.8600 N.ar    1  UNL1       -0.2060
     10 C         140.5566  143.2267  160.3861 C.ar    1  UNL1        0.1983
     11 N         139.2274  143.4566  159.7301 N.2     1  UNL1       -0.2011
     12 S         141.8441  142.9130  159.6833 S.2     1  UNL1       -0.0214
     13 C         139.8258  143.5512  162.9368 C.ar    1  UNL1        0.0849
     14 C         140.0445  144.6893  163.8889 C.ar    1  UNL1        0.0192
     15 C         139.0387  144.9703  164.9656 C.ar    1  UNL1        0.0015
     16 C         137.8141  144.1131  165.0901 C.ar    1  UNL1        0.0001
     17 C         137.5953  142.9749  164.1380 C.ar    1  UNL1        0.0015
     18 C         138.6011  142.6940  163.0613 C.ar    1  UNL1        0.0192
     19 C         144.3580  142.4467  160.4629 C.2     1  UNL1        0.3673
     20 O         144.9072  142.5406  159.0702 O.2     1  UNL1       -0.2425
     21 O         145.2521  142.0371  161.5956 O.3     1  UNL1       -0.4440
     22 C         145.2921  140.8190  163.8901 C.3     1  UNL1        0.0513
     23 C         144.8926  140.8540  162.4447 C.3     1  UNL1        0.2090
     24 C         139.7542  145.6587  155.0532 C.ar    1  UNL1        0.0177
     25 C         140.7311  145.4857  153.9280 C.ar    1  UNL1        0.0015
     26 C         141.1173  146.6630  153.0826 C.ar    1  UNL1        0.0000
     27 C         140.5267  148.0132  153.3621 C.ar    1  UNL1        0.0000
     28 C         139.5499  148.1861  154.4872 C.ar    1  UNL1        0.0000
     29 C         139.1635  147.0088  155.3328 C.ar    1  UNL1        0.0015
     30 C         137.9636  140.7969  155.4489 C.ar    1  UNL1        0.0008
     31 C         136.5000  140.6441  155.1578 C.ar    1  UNL1        0.0000
     32 C         135.9910  139.3905  154.5102 C.ar    1  UNL1        0.0000
     33 C         136.9456  138.2897  154.1536 C.ar    1  UNL1        0.0000
     34 C         138.4091  138.4425  154.4447 C.ar    1  UNL1        0.0000
     35 C         138.9181  139.6961  155.0923 C.ar    1  UNL1        0.0000
     36 C         138.2092  140.9494  158.4350 C.1     1  UNL1        0.1035
     37 N         137.8230  139.7721  159.2804 N.1     1  UNL1       -0.1907
@<TRIPOS>BOND
     1    22    23    1
     2    23    21    1
     3    21    19    1
     4    19    20    2
     5    19     7    1
     6     7     8   ar
     7     8     9   ar
     8     9    13    1
     9    13    14   ar
    10    14    15   ar
    11    15    16   ar
    12    16    17   ar
    13    17    18   ar
    14     9    10   ar
    15    10    11    2
    16    11     1    1
    17     1     2   ar
    18     2     3   ar
    19     3    24    1
    20    24    25   ar
    21    25    26   ar
    22    26    27   ar
    23    27    28   ar
    24    28    29   ar
    25     3     4   ar
    26     4     5   ar
    27     5    30    1
    28    30    31   ar
    29    31    32   ar
    30    32    33   ar
    31    33    34   ar
    32    34    35   ar
    33     5     6   ar
    34     6    36    1
    35    36    37    3
    36    10    12   ar
    37    12     7   ar
    38    18    13   ar
    39     6     1   ar
    40    29    24   ar
    41    35    30   ar
@<TRIPOS>MOLECULE
*****
 37 41 0 0 0
SMALL
GASTEIGER

@<TRIPOS>ATOM
      1 C         144.9667  141.4847  157.7311 C.ar    1  UNL1        0.1740
      2 N         146.0455  142.1467  156.9262 N.ar    1  UNL1       -0.2259
      3 C         146.4081  141.6102  155.5732 C.ar    1  UNL1        0.0830
      4 C         145.6918  140.4117  155.0250 C.ar    1  UNL1        0.0199
      5 C         144.6129  139.7497  155.8298 C.ar    1  UNL1        0.0141
      6 C         144.2504  140.2862  157.1828 C.ar    1  UNL1        0.1042
      7 C         141.6589  144.5192  158.6955 C.ar    1  UNL1        0.2089
      8 N         141.8844  144.5652  160.1777 N.ar    1  UNL1       -0.1500
      9 N         143.0151  143.6350  160.5037 N.ar    1  UNL1       -0.2060
     10 C         143.4884  143.0141  159.2229 C.ar    1  UNL1        0.1983
     11 N         144.6040  142.0211  159.0841 N.2     1  UNL1       -0.2011
     12 S         142.6503  143.5606  158.1054 S.2     1  UNL1       -0.0214
     13 C         143.5742  143.3720  161.8706 C.ar    1  UNL1        0.0849
     14 C         144.1248  142.0181  162.2078 C.ar    1  UNL1        0.0192
     15 C         144.6839  141.7551  163.5746 C.ar    1  UNL1        0.0015
     16 C         144.6925  142.8459  164.6041 C.ar    1  UNL1        0.0001
     17 C         144.1419  144.1998  164.2669 C.ar    1  UNL1        0.0015
     18 C         143.5828  144.4629  162.9001 C.ar    1  UNL1        0.0192
     19 C         140.6238  145.2956  157.9366 C.2     1  UNL1        0.3673
     20 O         139.7065  146.2330  158.6644 O.2     1  UNL1       -0.2425
     21 O         140.5061  145.1344  156.4499 O.3     1  UNL1       -0.4440
     22 C         139.7488  147.1217  154.9574 C.3     1  UNL1        0.0513
     23 C         140.8440  146.2799  155.5423 C.3     1  UNL1        0.2090
     24 C         147.4870  142.2721  154.7683 C.ar    1  UNL1        0.0177
     25 C         147.1739  143.4934  153.9554 C.ar    1  UNL1        0.0015
     26 C         148.2528  144.1553  153.1506 C.ar    1  UNL1        0.0000
     27 C         149.6447  143.5962  153.1585 C.ar    1  UNL1        0.0000
     28 C         149.9577  142.3750  153.9714 C.ar    1  UNL1        0.0000
     29 C         148.8788  141.7129  154.7763 C.ar    1  UNL1        0.0015
     30 C         143.8966  138.5512  155.2816 C.ar    1  UNL1        0.0008
     31 C         142.6928  138.7327  154.4052 C.ar    1  UNL1        0.0000
     32 C         141.9766  137.5342  153.8570 C.ar    1  UNL1        0.0000
     33 C         142.4641  136.1541  154.1852 C.ar    1  UNL1        0.0000
     34 C         143.6679  135.9726  155.0615 C.ar    1  UNL1        0.0000
     35 C         144.3841  137.1711  155.6097 C.ar    1  UNL1        0.0000
     36 C         143.1714  139.6242  157.9877 C.1     1  UNL1        0.1035
     37 N         142.0925  138.9622  158.7926 N.1     1  UNL1       -0.1907
@<TRIPOS>BOND
     1    22    23    1
     2    23    21    1
     3    21    19    1
     4    19    20    2
     5    19     7    1
     6     7     8   ar
     7     8     9   ar
     8     9    13    1
     9    13    14   ar
    10    14    15   ar
    11    15    16   ar
    12    16    17   ar
    13    17    18   ar
    14     9    10   ar
    15    10    11    2
    16    11     1    1
    17     1     2   ar
    18     2     3   ar
    19     3    24    1
    20    24    25   ar
    21    25    26   ar
    22    26    27   ar
    23    27    28   ar
    24    28    29   ar
    25     3     4   ar
    26     4     5   ar
    27     5    30    1
    28    30    31   ar
    29    31    32   ar
    30    32    33   ar
    31    33    34   ar
    32    34    35   ar
    33     5     6   ar
    34     6    36    1
    35    36    37    3
    36    10    12   ar
    37    12     7   ar
    38    18    13   ar
    39     6     1   ar
    40    29    24   ar
    41    35    30   ar
@<TRIPOS>MOLECULE
*****
 37 41 0 0 0
SMALL
GASTEIGER

@<TRIPOS>ATOM
      1 C         143.0598  139.9629  159.1478 C.ar    1  UNL1        0.1740
      2 N         144.2201  140.5150  158.3738 N.ar    1  UNL1       -0.2259
      3 C         144.2102  140.4719  156.8745 C.ar    1  UNL1        0.0830
      4 C         143.0400  139.8765  156.1491 C.ar    1  UNL1        0.0199
      5 C         141.8797  139.3244  156.9230 C.ar    1  UNL1        0.0141
      6 C         141.8896  139.3676  158.4222 C.ar    1  UNL1        0.1042
      7 C         141.6433  143.4222  161.8135 C.ar    1  UNL1        0.2089
      8 N         141.9448  142.7693  163.1299 N.ar    1  UNL1       -0.1500
      9 N         142.5158  141.4101  162.8531 N.ar    1  UNL1       -0.2060
     10 C         142.5672  141.2230  161.3658 C.ar    1  UNL1        0.1983
     11 N         143.0697  140.0060  160.6470 N.2     1  UNL1       -0.2011
     12 S         142.0280  142.4665  160.7232 S.2     1  UNL1       -0.0214
     13 C         142.9578  140.4130  163.8830 C.ar    1  UNL1        0.0849
     14 C         144.4070  140.0428  163.9951 C.ar    1  UNL1        0.0192
     15 C         144.8489  139.0459  165.0250 C.ar    1  UNL1        0.0015
     16 C         143.8416  138.4190  165.9428 C.ar    1  UNL1        0.0001
     17 C         142.3923  138.7892  165.8307 C.ar    1  UNL1        0.0015
     18 C         141.9504  139.7862  164.8009 C.ar    1  UNL1        0.0192
     19 C         141.0596  144.7905  161.6212 C.2     1  UNL1        0.3673
     20 O         141.0974  145.4388  160.2691 O.2     1  UNL1       -0.2425
     21 O         140.4382  145.5106  162.7811 O.3     1  UNL1       -0.4440
     22 C         139.0541  144.7512  164.8445 C.3     1  UNL1        0.0513
     23 C         139.1518  145.0130  163.3708 C.3     1  UNL1        0.2090
     24 C         145.3704  141.0240  156.1006 C.ar    1  UNL1        0.0177
     25 C         146.3206  141.9824  156.7553 C.ar    1  UNL1        0.0015
     26 C         147.4808  142.5346  155.9814 C.ar    1  UNL1        0.0000
     27 C         147.6910  142.1283  154.5528 C.ar    1  UNL1        0.0000
     28 C         146.7408  141.1699  153.8981 C.ar    1  UNL1        0.0000
     29 C         145.5805  140.6177  154.6720 C.ar    1  UNL1        0.0015
     30 C         140.7095  138.7291  156.1974 C.ar    1  UNL1        0.0008
     31 C         139.5677  139.6034  155.7709 C.ar    1  UNL1        0.0000
     32 C         138.3976  139.0080  155.0454 C.ar    1  UNL1        0.0000
     33 C         138.3693  137.5384  154.7464 C.ar    1  UNL1        0.0000
     34 C         139.5111  136.6641  155.1730 C.ar    1  UNL1        0.0000
     35 C         140.6812  137.2595  155.8985 C.ar    1  UNL1        0.0000
     36 C         140.7293  138.8154  159.1962 C.1     1  UNL1        0.1035
     37 N         139.5691  138.2633  159.9701 N.1     1  UNL1       -0.1907
@<TRIPOS>BOND
     1    22    23    1
     2    23    21    1
     3    21    19    1
     4    19    20    2
     5    19     7    1
     6     7     8   ar
     7     8     9   ar
     8     9    13    1
     9    13    14   ar
    10    14    15   ar
    11    15    16   ar
    12    16    17   ar
    13    17    18   ar
    14     9    10   ar
    15    10    11    2
    16    11     1    1
    17     1     2   ar
    18     2     3   ar
    19     3    24    1
    20    24    25   ar
    21    25    26   ar
    22    26    27   ar
    23    27    28   ar
    24    28    29   ar
    25     3     4   ar
    26     4     5   ar
    27     5    30    1
    28    30    31   ar
    29    31    32   ar
    30    32    33   ar
    31    33    34   ar
    32    34    35   ar
    33     5     6   ar
    34     6    36    1
    35    36    37    3
    36    10    12   ar
    37    12     7   ar
    38    18    13   ar
    39     6     1   ar
    40    29    24   ar
    41    35    30   ar
@<TRIPOS>MOLECULE
*****
 37 41 0 0 0
SMALL
GASTEIGER

@<TRIPOS>ATOM
      1 C         141.3474  139.8411  161.4163 C.ar    1  UNL1        0.1740
      2 N         140.4636  139.1166  162.3879 N.ar    1  UNL1       -0.2259
      3 C         140.2413  139.6770  163.7614 C.ar    1  UNL1        0.0830
      4 C         140.9028  140.9618  164.1633 C.ar    1  UNL1        0.0199
      5 C         141.7866  141.6863  163.1917 C.ar    1  UNL1        0.0141
      6 C         142.0089  141.1260  161.8183 C.ar    1  UNL1        0.1042
      7 C         138.6742  140.4380  157.7315 C.ar    1  UNL1        0.2089
      8 N         139.4961  139.6208  156.7794 N.ar    1  UNL1       -0.1500
      9 N         140.6808  139.0878  157.5293 N.ar    1  UNL1       -0.2060
     10 C         140.5911  139.5756  158.9449 C.ar    1  UNL1        0.1983
     11 N         141.5698  139.2808  160.0428 N.2     1  UNL1       -0.2011
     12 S         139.3510  140.4101  159.0699 S.2     1  UNL1       -0.0214
     13 C         141.7649  138.2194  156.9630 C.ar    1  UNL1        0.0849
     14 C         141.7508  136.7410  157.2163 C.ar    1  UNL1        0.0192
     15 C         142.8349  135.8727  156.6500 C.ar    1  UNL1        0.0015
     16 C         143.9331  136.4828  155.8303 C.ar    1  UNL1        0.0001
     17 C         143.9472  137.9611  155.5770 C.ar    1  UNL1        0.0015
     18 C         142.8631  138.8294  156.1433 C.ar    1  UNL1        0.0192
     19 C         137.3993  141.1569  157.4030 C.2     1  UNL1        0.3673
     20 O         136.1077  140.3978  157.3296 O.2     1  UNL1       -0.2425
     21 O         137.4161  142.6350  157.1479 O.3     1  UNL1       -0.4440
     22 C         137.3955  144.4375  155.2770 C.3     1  UNL1        0.0513
     23 C         137.9480  143.1661  155.8499 C.3     1  UNL1        0.2090
     24 C         139.3575  138.9525  164.7330 C.ar    1  UNL1        0.0177
     25 C         138.7463  139.6920  165.8862 C.ar    1  UNL1        0.0015
     26 C         137.8625  138.9675  166.8578 C.ar    1  UNL1        0.0000
     27 C         137.5898  137.5037  166.6763 C.ar    1  UNL1        0.0000
     28 C         138.2010  136.7643  165.5232 C.ar    1  UNL1        0.0000
     29 C         139.0849  137.4887  164.5515 C.ar    1  UNL1        0.0015
     30 C         142.4481  142.9712  163.5937 C.ar    1  UNL1        0.0008
     31 C         141.8155  144.2839  163.2378 C.ar    1  UNL1        0.0000
     32 C         142.4771  145.5687  163.6398 C.ar    1  UNL1        0.0000
     33 C         143.7712  145.5408  164.3978 C.ar    1  UNL1        0.0000
     34 C         144.4037  144.2281  164.7537 C.ar    1  UNL1        0.0000
     35 C         143.7422  142.9433  164.3517 C.ar    1  UNL1        0.0000
     36 C         142.8928  141.8505  160.8466 C.1     1  UNL1        0.1035
     37 N         143.7766  142.5750  159.8750 N.1     1  UNL1       -0.1907
@<TRIPOS>BOND
     1    22    23    1
     2    23    21    1
     3    21    19    1
     4    19    20    2
     5    19     7    1
     6     7     8   ar
     7     8     9   ar
     8     9    13    1
     9    13    14   ar
    10    14    15   ar
    11    15    16   ar
    12    16    17   ar
    13    17    18   ar
    14     9    10   ar
    15    10    11    2
    16    11     1    1
    17     1     2   ar
    18     2     3   ar
    19     3    24    1
    20    24    25   ar
    21    25    26   ar
    22    26    27   ar
    23    27    28   ar
    24    28    29   ar
    25     3     4   ar
    26     4     5   ar
    27     5    30    1
    28    30    31   ar
    29    31    32   ar
    30    32    33   ar
    31    33    34   ar
    32    34    35   ar
    33     5     6   ar
    34     6    36    1
    35    36    37    3
    36    10    12   ar
    37    12     7   ar
    38    18    13   ar
    39     6     1   ar
    40    29    24   ar
    41    35    30   ar
@<TRIPOS>MOLECULE
*****
 37 41 0 0 0
SMALL
GASTEIGER

@<TRIPOS>ATOM
      1 C         139.4639  139.6256  158.9637 C.ar    1  UNL1        0.1740
      2 N         138.2811  139.9173  158.0885 N.ar    1  UNL1       -0.2259
      3 C         138.4229  139.8707  156.5960 C.ar    1  UNL1        0.0830
      4 C         139.7474  139.5325  155.9786 C.ar    1  UNL1        0.0199
      5 C         140.9302  139.2408  156.8538 C.ar    1  UNL1        0.0141
      6 C         140.7884  139.2873  158.3463 C.ar    1  UNL1        0.1042
      7 C         139.7196  143.3470  161.6405 C.ar    1  UNL1        0.2089
      8 N         139.4916  142.6448  162.9462 N.ar    1  UNL1       -0.1500
      9 N         139.3150  141.1826  162.6615 N.ar    1  UNL1       -0.2060
     10 C         139.4338  140.9812  161.1799 C.ar    1  UNL1        0.1983
     11 N         139.3222  139.6721  160.4562 N.2     1  UNL1       -0.2011
     12 S         139.6839  142.3189  160.5488 S.2     1  UNL1       -0.0214
     13 C         139.0636  140.1102  163.6798 C.ar    1  UNL1        0.0849
     14 C         139.6235  138.7340  163.4734 C.ar    1  UNL1        0.0192
     15 C         139.3721  137.6617  164.4916 C.ar    1  UNL1        0.0015
     16 C         138.5608  137.9655  165.7162 C.ar    1  UNL1        0.0001
     17 C         138.0009  139.3416  165.9225 C.ar    1  UNL1        0.0015
     18 C         138.2523  140.4140  164.9043 C.ar    1  UNL1        0.0192
     19 C         139.9439  144.8189  161.4585 C.2     1  UNL1        0.3673
     20 O         140.3085  145.6733  162.6362 O.2     1  UNL1       -0.2425
     21 O         139.8037  145.4364  160.0987 O.3     1  UNL1       -0.4440
     22 C         140.7963  145.8785  157.7387 C.3     1  UNL1        0.0513
     23 C         140.9856  145.4972  159.1771 C.3     1  UNL1        0.2090
     24 C         137.2401  140.1624  155.7208 C.ar    1  UNL1        0.0177
     25 C         136.2865  141.2599  156.0900 C.ar    1  UNL1        0.0015
     26 C         135.1038  141.5516  155.2148 C.ar    1  UNL1        0.0000
     27 C         134.8745  140.7459  153.9704 C.ar    1  UNL1        0.0000
     28 C         135.8281  139.6485  153.6013 C.ar    1  UNL1        0.0000
     29 C         137.0110  139.3567  154.4765 C.ar    1  UNL1        0.0015
     30 C         142.2548  138.9025  156.2363 C.ar    1  UNL1        0.0008
     31 C         142.6268  137.4692  155.9973 C.ar    1  UNL1        0.0000
     32 C         143.9513  137.1310  155.3799 C.ar    1  UNL1        0.0000
     33 C         144.9038  138.2261  155.0014 C.ar    1  UNL1        0.0000
     34 C         144.5318  139.6595  155.2404 C.ar    1  UNL1        0.0000
     35 C         143.2073  139.9977  155.8579 C.ar    1  UNL1        0.0000
     36 C         141.9713  138.9956  159.2215 C.1     1  UNL1        0.1035
     37 N         143.1541  138.7039  160.0967 N.1     1  UNL1       -0.1907
@<TRIPOS>BOND
     1    22    23    1
     2    23    21    1
     3    21    19    1
     4    19    20    2
     5    19     7    1
     6     7     8   ar
     7     8     9   ar
     8     9    13    1
     9    13    14   ar
    10    14    15   ar
    11    15    16   ar
    12    16    17   ar
    13    17    18   ar
    14     9    10   ar
    15    10    11    2
    16    11     1    1
    17     1     2   ar
    18     2     3   ar
    19     3    24    1
    20    24    25   ar
    21    25    26   ar
    22    26    27   ar
    23    27    28   ar
    24    28    29   ar
    25     3     4   ar
    26     4     5   ar
    27     5    30    1
    28    30    31   ar
    29    31    32   ar
    30    32    33   ar
    31    33    34   ar
    32    34    35   ar
    33     5     6   ar
    34     6    36    1
    35    36    37    3
    36    10    12   ar
    37    12     7   ar
    38    18    13   ar
    39     6     1   ar
    40    29    24   ar
    41    35    30   ar
@<TRIPOS>MOLECULE
*****
 37 41 0 0 0
SMALL
GASTEIGER

@<TRIPOS>ATOM
      1 C         139.2602  141.1189  160.7500 C.ar    1  UNL1        0.1740
      2 N         138.7877  140.1721  161.8131 N.ar    1  UNL1       -0.2259
      3 C         139.3492  140.2622  163.2011 C.ar    1  UNL1        0.0830
      4 C         140.3833  141.2991  163.5260 C.ar    1  UNL1        0.0199
      5 C         140.8558  142.2459  162.4629 C.ar    1  UNL1        0.0141
      6 C         140.2943  142.1558  161.0750 C.ar    1  UNL1        0.1042
      7 C         140.7177  138.3863  157.3606 C.ar    1  UNL1        0.2089
      8 N         139.7232  138.8327  156.3301 N.ar    1  UNL1       -0.1500
      9 N         138.8459  139.8770  156.9545 N.ar    1  UNL1       -0.2060
     10 C         139.2981  140.0760  158.3707 C.ar    1  UNL1        0.1983
     11 N         138.6988  141.0290  159.3620 N.2     1  UNL1       -0.2011
     12 S         140.4549  139.1547  158.6218 S.2     1  UNL1       -0.0214
     13 C         137.7149  140.5960  156.2807 C.ar    1  UNL1        0.0849
     14 C         136.6699  139.8192  155.5360 C.ar    1  UNL1        0.0192
     15 C         135.5390  140.5382  154.8623 C.ar    1  UNL1        0.0015
     16 C         135.4530  142.0341  154.9333 C.ar    1  UNL1        0.0001
     17 C         136.4979  142.8109  155.6780 C.ar    1  UNL1        0.0015
     18 C         137.6289  142.0919  156.3517 C.ar    1  UNL1        0.0192
     19 C         141.7871  137.3529  157.1643 C.2     1  UNL1        0.3673
     20 O         143.0854  137.4669  157.9069 O.2     1  UNL1       -0.2425
     21 O         141.5582  136.2057  156.2255 O.3     1  UNL1       -0.4440
     22 C         142.1177  135.6088  153.7596 C.3     1  UNL1        0.0513
     23 C         142.5686  135.8942  155.1615 C.3     1  UNL1        0.2090
     24 C         138.8767  139.3154  164.2643 C.ar    1  UNL1        0.0177
     25 C         139.0163  137.8351  164.0661 C.ar    1  UNL1        0.0015
     26 C         138.5438  136.8882  165.1292 C.ar    1  UNL1        0.0000
     27 C         137.9317  137.4216  166.3905 C.ar    1  UNL1        0.0000
     28 C         137.7921  138.9019  166.5886 C.ar    1  UNL1        0.0000
     29 C         138.2646  139.8489  165.5255 C.ar    1  UNL1        0.0015
     30 C         141.8900  143.2828  162.7879 C.ar    1  UNL1        0.0008
     31 C         143.3179  143.0715  162.3801 C.ar    1  UNL1        0.0000
     32 C         144.3520  144.1084  162.7051 C.ar    1  UNL1        0.0000
     33 C         143.9580  145.3566  163.4378 C.ar    1  UNL1        0.0000
     34 C         142.5300  145.5678  163.8456 C.ar    1  UNL1        0.0000
     35 C         141.4960  144.5309  163.5206 C.ar    1  UNL1        0.0000
     36 C         140.7669  143.1027  160.0118 C.1     1  UNL1        0.1035
     37 N         141.2395  144.0495  158.9487 N.1     1  UNL1       -0.1907
@<TRIPOS>BOND
     1    22    23    1
     2    23    21    1
     3    21    19    1
     4    19    20    2
     5    19     7    1
     6     7     8   ar
     7     8     9   ar
     8     9    13    1
     9    13    14   ar
    10    14    15   ar
    11    15    16   ar
    12    16    17   ar
    13    17    18   ar
    14     9    10   ar
    15    10    11    2
    16    11     1    1
    17     1     2   ar
    18     2     3   ar
    19     3    24    1
    20    24    25   ar
    21    25    26   ar
    22    26    27   ar
    23    27    28   ar
    24    28    29   ar
    25     3     4   ar
    26     4     5   ar
    27     5    30    1
    28    30    31   ar
    29    31    32   ar
    30    32    33   ar
    31    33    34   ar
    32    34    35   ar
    33     5     6   ar
    34     6    36    1
    35    36    37    3
    36    10    12   ar
    37    12     7   ar
    38    18    13   ar
    39     6     1   ar
    40    29    24   ar
    41    35    30   ar
