@<TRIPOS>MOLECULE
*****
 32 36 0 0 0
SMALL
GASTEIGER

@<TRIPOS>ATOM
      1 C         142.8126  138.7720  163.6030 C.3     1  UNL1        0.0870
      2 C         141.8522  138.1270  164.5579 C.3     1  UNL1        0.0226
      3 C         142.1516  138.6416  165.9347 C.3     1  UNL1        0.0033
      4 C         142.6746  139.3207  167.1657 C.3     1  UNL1        0.0159
      5 C         143.2970  139.6046  165.8308 C.3     1  UNL1        0.0033
      6 C         143.7055  139.6852  164.3897 C.3     1  UNL1        0.0226
      7 F         138.9561  138.9650  157.6261 F       1  UNL1       -0.2017
      8 C         139.8818  138.8818  158.8036 C.ar    1  UNL1        0.1690
      9 C         141.3093  138.4648  158.6073 C.ar    1  UNL1        0.0526
     10 C         142.2349  138.3816  159.7847 C.ar    1  UNL1        0.1011
     11 N         143.6820  138.0039  159.8990 N.ar    1  UNL1       -0.2239
     12 C         144.0745  138.1041  161.3432 C.ar    1  UNL1        0.1785
     13 N         142.8700  138.5438  162.1216 N.ar    1  UNL1       -0.3109
     14 C         141.7330  138.7153  161.1583 C.ar    1  UNL1        0.0813
     15 C         140.3056  139.1323  161.3545 C.ar    1  UNL1        0.0507
     16 C         139.3800  139.2155  160.1771 C.ar    1  UNL1        0.1689
     17 F         137.9524  139.6324  160.3734 F       1  UNL1       -0.2017
     18 C         142.6172  139.5488  168.6471 C.3     1  UNL1        0.0689
     19 N         141.2908  139.6242  169.3434 N.3     1  UNL1       -0.2882
     20 H         141.4855  139.7918  170.3305 H       1  UNL1        0.1237
     21 C         140.2794  140.6484  168.9216 C.3     1  UNL1        0.1731
     22 C         139.6522  140.5674  167.5614 C.ar    1  UNL1        0.0003
     23 C         139.9075  141.6474  166.5523 C.ar    1  UNL1       -0.0018
     24 C         139.2804  141.5664  165.1921 C.ar    1  UNL1        0.0111
     25 C         138.3980  140.4055  164.8410 C.ar    1  UNL1        0.0577
     26 CL        137.7709  140.3245  163.4808 Cl      1  UNL1       -0.0822
     27 C         138.1427  139.3254  165.8500 C.ar    1  UNL1        0.0111
     28 C         138.7698  139.4064  167.2103 C.ar    1  UNL1       -0.0018
     29 C         139.8949  141.7537  169.8600 C.3     1  UNL1        0.4142
     30 F         139.5105  142.8589  170.7984 F       1  UNL1       -0.1682
     31 F         141.1864  142.4559  169.5621 F       1  UNL1       -0.1682
     32 F         138.6034  141.0514  170.1580 F       1  UNL1       -0.1682
@<TRIPOS>BOND
     1     7     8    1
     2     8     9   ar
     3     9    10   ar
     4    10    11   ar
     5    11    12   ar
     6    12    13   ar
     7     1    13    1
     8     1     2    1
     9     3     2    1
    10     3     4    1
    11     4    18    1
    12    18    19    1
    13    19    21    1
    14    21    22    1
    15    22    23   ar
    16    23    24   ar
    17    24    25   ar
    18    25    26    1
    19    25    27   ar
    20    27    28   ar
    21    21    29    1
    22    29    30    1
    23    29    31    1
    24    29    32    1
    25     4     5    1
    26     5     6    1
    27    13    14   ar
    28    14    15   ar
    29    15    16   ar
    30    16    17    1
    31    16     8   ar
    32    14    10   ar
    33     6     1    1
    34     5     3    1
    35    28    22   ar
    36    19    20    1
@<TRIPOS>MOLECULE
*****
 32 36 0 0 0
SMALL
GASTEIGER

@<TRIPOS>ATOM
      1 C         139.0863  139.6680  163.8812 C.3     1  UNL1        0.0870
      2 C         139.1481  140.9622  164.6370 C.3     1  UNL1        0.0226
      3 C         139.2647  140.6410  166.0975 C.3     1  UNL1        0.0033
      4 C         139.3731  140.0222  167.4596 C.3     1  UNL1        0.0159
      5 C         139.2749  139.1482  166.2445 C.3     1  UNL1        0.0033
      6 C         139.1646  138.5469  164.8747 C.3     1  UNL1        0.0226
      7 F         142.6430  137.7963  158.0093 F       1  UNL1       -0.2017
      8 C         141.7784  138.2169  159.1607 C.ar    1  UNL1        0.1690
      9 C         140.3602  138.6410  158.9180 C.ar    1  UNL1        0.0526
     10 C         139.4957  139.0616  160.0694 C.ar    1  UNL1        0.1011
     11 N         138.0712  139.5265  160.1376 N.ar    1  UNL1       -0.2239
     12 C         137.7445  139.8102  161.5738 C.ar    1  UNL1        0.1785
     13 N         138.9670  139.5207  162.3933 N.ar    1  UNL1       -0.3109
     14 C         140.0493  139.0580  161.4635 C.ar    1  UNL1        0.0813
     15 C         141.4675  138.6338  161.7062 C.ar    1  UNL1        0.0507
     16 C         142.3320  138.2133  160.5547 C.ar    1  UNL1        0.1689
     17 F         143.7502  137.7891  160.7975 F       1  UNL1       -0.2017
     18 C         139.4923  140.1695  168.9476 C.3     1  UNL1        0.0689
     19 N         140.8454  140.1715  169.5950 N.3     1  UNL1       -0.2882
     20 H         141.1531  139.1999  169.6371 H       1  UNL1        0.1237
     21 C         141.9684  140.9552  168.9831 C.3     1  UNL1        0.1731
     22 C         142.5705  140.5126  167.6824 C.ar    1  UNL1        0.0003
     23 C         142.8373  141.5157  166.5997 C.ar    1  UNL1       -0.0018
     24 C         143.4394  141.0731  165.2990 C.ar    1  UNL1        0.0111
     25 C         143.7746  139.6275  165.0812 C.ar    1  UNL1        0.0577
     26 CL        144.3767  139.1849  163.7805 Cl      1  UNL1       -0.0822
     27 C         143.5078  138.6243  166.1640 C.ar    1  UNL1        0.0111
     28 C         142.9057  139.0668  167.4646 C.ar    1  UNL1       -0.0018
     29 C         142.4895  142.1817  169.6718 C.3     1  UNL1        0.4142
     30 F         143.0107  143.4081  170.3605 F       1  UNL1       -0.1682
     31 F         141.2072  142.8977  169.3672 F       1  UNL1       -0.1682
     32 F         143.7719  141.4656  169.9764 F       1  UNL1       -0.1682
@<TRIPOS>BOND
     1     7     8    1
     2     8     9   ar
     3     9    10   ar
     4    10    11   ar
     5    11    12   ar
     6    12    13   ar
     7     1    13    1
     8     1     2    1
     9     3     2    1
    10     3     4    1
    11     4    18    1
    12    18    19    1
    13    19    21    1
    14    21    22    1
    15    22    23   ar
    16    23    24   ar
    17    24    25   ar
    18    25    26    1
    19    25    27   ar
    20    27    28   ar
    21    21    29    1
    22    29    30    1
    23    29    31    1
    24    29    32    1
    25     4     5    1
    26     5     6    1
    27    13    14   ar
    28    14    15   ar
    29    15    16   ar
    30    16    17    1
    31    16     8   ar
    32    14    10   ar
    33     6     1    1
    34     5     3    1
    35    28    22   ar
    36    19    20    1
@<TRIPOS>MOLECULE
*****
 32 36 0 0 0
SMALL
GASTEIGER

@<TRIPOS>ATOM
      1 C         143.3461  142.7274  163.4739 C.3     1  UNL1        0.0870
      2 C         142.2152  142.1907  164.3004 C.3     1  UNL1        0.0226
      3 C         142.6061  142.2960  165.7448 C.3     1  UNL1        0.0033
      4 C         143.2621  142.5234  167.0745 C.3     1  UNL1        0.0159
      5 C         143.9785  142.8977  165.8110 C.3     1  UNL1        0.0033
      6 C         144.4359  143.1643  164.4075 C.3     1  UNL1        0.0226
      7 F         140.3730  145.9125  157.8482 F       1  UNL1       -0.2017
      8 C         141.0851  145.1696  158.9397 C.ar    1  UNL1        0.1690
      9 C         142.1714  144.1935  158.5973 C.ar    1  UNL1        0.0526
     10 C         142.8835  143.4507  159.6887 C.ar    1  UNL1        0.1011
     11 N         143.9865  142.4347  159.6569 N.ar    1  UNL1       -0.2239
     12 C         144.2941  142.0401  161.0710 C.ar    1  UNL1        0.1785
     13 N         143.3811  142.8122  161.9767 N.ar    1  UNL1       -0.3109
     14 C         142.5093  143.6840  161.1224 C.ar    1  UNL1        0.0813
     15 C         141.4230  144.6601  161.4647 C.ar    1  UNL1        0.0507
     16 C         140.7109  145.4029  160.3733 C.ar    1  UNL1        0.1689
     17 F         139.6246  146.3791  160.7157 F       1  UNL1       -0.2017
     18 C         143.2271  142.4386  168.5717 C.3     1  UNL1        0.0689
     19 N         143.1820  141.0995  169.2461 N.3     1  UNL1       -0.2882
     20 H         143.1737  141.2759  170.2507 H       1  UNL1        0.1237
     21 C         142.0519  140.1548  168.9630 C.3     1  UNL1        0.1731
     22 C         141.9279  139.5173  167.6108 C.ar    1  UNL1        0.0003
     23 C         140.6219  139.5675  166.8749 C.ar    1  UNL1       -0.0018
     24 C         140.4980  138.9300  165.5228 C.ar    1  UNL1        0.0111
     25 C         141.6800  138.2423  164.9066 C.ar    1  UNL1        0.0577
     26 CL        141.5560  137.6048  163.5545 Cl      1  UNL1       -0.0822
     27 C         142.9861  138.1921  165.6426 C.ar    1  UNL1        0.0111
     28 C         143.1100  138.8296  166.9947 C.ar    1  UNL1       -0.0018
     29 C         141.0455  139.8475  170.0321 C.3     1  UNL1        0.4142
     30 F         140.0391  139.5403  171.1011 F       1  UNL1       -0.1682
     31 F         141.7878  138.5885  170.3691 F       1  UNL1       -0.1682
     32 F         140.3031  141.1066  169.6950 F       1  UNL1       -0.1682
@<TRIPOS>BOND
     1     7     8    1
     2     8     9   ar
     3     9    10   ar
     4    10    11   ar
     5    11    12   ar
     6    12    13   ar
     7     1    13    1
     8     1     2    1
     9     3     2    1
    10     3     4    1
    11     4    18    1
    12    18    19    1
    13    19    21    1
    14    21    22    1
    15    22    23   ar
    16    23    24   ar
    17    24    25   ar
    18    25    26    1
    19    25    27   ar
    20    27    28   ar
    21    21    29    1
    22    29    30    1
    23    29    31    1
    24    29    32    1
    25     4     5    1
    26     5     6    1
    27    13    14   ar
    28    14    15   ar
    29    15    16   ar
    30    16    17    1
    31    16     8   ar
    32    14    10   ar
    33     6     1    1
    34     5     3    1
    35    28    22   ar
    36    19    20    1
@<TRIPOS>MOLECULE
*****
 32 36 0 0 0
SMALL
GASTEIGER

@<TRIPOS>ATOM
      1 C         143.1064  141.7010  163.9203 C.3     1  UNL1        0.0870
      2 C         143.3267  142.4045  165.2267 C.3     1  UNL1        0.0226
      3 C         143.0710  141.4220  166.3310 C.3     1  UNL1        0.0033
      4 C         142.7554  140.2409  167.2002 C.3     1  UNL1        0.0159
      5 C         142.6926  140.1114  165.7071 C.3     1  UNL1        0.0033
      6 C         142.7145  140.2839  164.2172 C.3     1  UNL1        0.0226
      7 F         139.4610  144.0652  158.2851 F       1  UNL1       -0.2017
      8 C         140.3510  143.6029  159.4007 C.ar    1  UNL1        0.1690
      9 C         141.8409  143.7129  159.2660 C.ar    1  UNL1        0.0526
     10 C         142.7309  143.2507  160.3815 C.ar    1  UNL1        0.1011
     11 N         144.2230  143.2341  160.5338 N.ar    1  UNL1       -0.2239
     12 C         144.5453  142.6516  161.8780 C.ar    1  UNL1        0.1785
     13 N         143.2523  142.3081  162.5564 N.ar    1  UNL1       -0.3109
     14 C         142.1309  142.6784  161.6315 C.ar    1  UNL1        0.0813
     15 C         140.6411  142.5684  161.7661 C.ar    1  UNL1        0.0507
     16 C         139.7511  143.0307  160.6506 C.ar    1  UNL1        0.1689
     17 F         138.2612  142.9206  160.7853 F       1  UNL1       -0.2017
     18 C         142.6095  139.6338  168.5640 C.3     1  UNL1        0.0689
     19 N         141.2853  139.6788  169.2672 N.3     1  UNL1       -0.2882
     20 H         141.4825  139.8244  170.2573 H       1  UNL1        0.1237
     21 C         140.2619  140.7027  168.8744 C.3     1  UNL1        0.1731
     22 C         139.6303  140.6486  167.5149 C.ar    1  UNL1        0.0003
     23 C         139.6931  141.8437  166.6107 C.ar    1  UNL1       -0.0018
     24 C         139.0615  141.7897  165.2513 C.ar    1  UNL1        0.0111
     25 C         138.3670  140.5407  164.7960 C.ar    1  UNL1        0.0577
     26 CL        137.7354  140.4867  163.4366 Cl      1  UNL1       -0.0822
     27 C         138.3042  139.3455  165.7002 C.ar    1  UNL1        0.0111
     28 C         138.9358  139.3995  167.0597 C.ar    1  UNL1       -0.0018
     29 C         139.8701  141.7807  169.8410 C.3     1  UNL1        0.4142
     30 F         139.4782  142.8587  170.8077 F       1  UNL1       -0.1682
     31 F         141.1526  142.5039  169.5546 F       1  UNL1       -0.1682
     32 F         138.5875  141.0575  170.1275 F       1  UNL1       -0.1682
@<TRIPOS>BOND
     1     7     8    1
     2     8     9   ar
     3     9    10   ar
     4    10    11   ar
     5    11    12   ar
     6    12    13   ar
     7     1    13    1
     8     1     2    1
     9     3     2    1
    10     3     4    1
    11     4    18    1
    12    18    19    1
    13    19    21    1
    14    21    22    1
    15    22    23   ar
    16    23    24   ar
    17    24    25   ar
    18    25    26    1
    19    25    27   ar
    20    27    28   ar
    21    21    29    1
    22    29    30    1
    23    29    31    1
    24    29    32    1
    25     4     5    1
    26     5     6    1
    27    13    14   ar
    28    14    15   ar
    29    15    16   ar
    30    16    17    1
    31    16     8   ar
    32    14    10   ar
    33     6     1    1
    34     5     3    1
    35    28    22   ar
    36    19    20    1
@<TRIPOS>MOLECULE
*****
 32 36 0 0 0
SMALL
GASTEIGER

@<TRIPOS>ATOM
      1 C         141.1355  143.8772  163.4478 C.3     1  UNL1        0.0870
      2 C         140.2055  143.2293  164.4303 C.3     1  UNL1        0.0226
      3 C         141.0370  142.5745  165.4933 C.3     1  UNL1        0.0033
      4 C         142.1098  142.0314  166.3900 C.3     1  UNL1        0.0159
      5 C         142.4809  142.8177  165.1677 C.3     1  UNL1        0.0033
      6 C         142.5418  143.6227  163.9036 C.3     1  UNL1        0.0226
      7 F         142.4820  144.7224  156.5120 F       1  UNL1       -0.2017
      8 C         142.0958  144.6473  157.9596 C.ar    1  UNL1        0.1690
      9 C         141.0068  145.5309  158.4920 C.ar    1  UNL1        0.0526
     10 C         140.6206  145.4557  159.9395 C.ar    1  UNL1        0.1011
     11 N         139.5935  146.1959  160.7439 N.ar    1  UNL1       -0.2239
     12 C         139.6614  145.6947  162.1561 C.ar    1  UNL1        0.1785
     13 N         140.7304  144.6447  162.2244 N.ar    1  UNL1       -0.3109
     14 C         141.3233  144.4970  160.8544 C.ar    1  UNL1        0.0813
     15 C         142.4122  143.6135  160.3219 C.ar    1  UNL1        0.0507
     16 C         142.7984  143.6886  158.8745 C.ar    1  UNL1        0.1689
     17 F         143.8874  142.8050  158.3420 F       1  UNL1       -0.2017
     18 C         142.5149  141.2639  167.6135 C.3     1  UNL1        0.0689
     19 N         142.5002  139.7641  167.5969 N.3     1  UNL1       -0.2882
     20 H         141.5703  139.4754  167.9008 H       1  UNL1        0.1237
     21 C         142.7885  139.0252  166.3239 C.3     1  UNL1        0.1731
     22 C         141.6661  138.6587  165.3986 C.ar    1  UNL1        0.0003
     23 C         140.2552  139.0296  165.7473 C.ar    1  UNL1       -0.0018
     24 C         139.1328  138.6632  164.8222 C.ar    1  UNL1        0.0111
     25 C         139.4213  137.9257  163.5483 C.ar    1  UNL1        0.0577
     26 CL        138.2990  137.5592  162.6231 Cl      1  UNL1       -0.0822
     27 C         140.8323  137.5547  163.1996 C.ar    1  UNL1        0.0111
     28 C         141.9547  137.9212  164.1247 C.ar    1  UNL1       -0.0018
     29 C         144.1992  138.6527  165.9758 C.3     1  UNL1        0.4142
     30 F         145.6099  138.2802  165.6279 F       1  UNL1       -0.1682
     31 F         144.3254  139.8998  165.1521 F       1  UNL1       -0.1682
     32 F         144.0731  137.4056  166.7997 F       1  UNL1       -0.1682
@<TRIPOS>BOND
     1     7     8    1
     2     8     9   ar
     3     9    10   ar
     4    10    11   ar
     5    11    12   ar
     6    12    13   ar
     7     1    13    1
     8     1     2    1
     9     3     2    1
    10     3     4    1
    11     4    18    1
    12    18    19    1
    13    19    21    1
    14    21    22    1
    15    22    23   ar
    16    23    24   ar
    17    24    25   ar
    18    25    26    1
    19    25    27   ar
    20    27    28   ar
    21    21    29    1
    22    29    30    1
    23    29    31    1
    24    29    32    1
    25     4     5    1
    26     5     6    1
    27    13    14   ar
    28    14    15   ar
    29    15    16   ar
    30    16    17    1
    31    16     8   ar
    32    14    10   ar
    33     6     1    1
    34     5     3    1
    35    28    22   ar
    36    19    20    1
@<TRIPOS>MOLECULE
*****
 32 36 0 0 0
SMALL
GASTEIGER

@<TRIPOS>ATOM
      1 C         139.9223  143.5747  163.8786 C.3     1  UNL1        0.0870
      2 C         139.0323  144.1741  164.9268 C.3     1  UNL1        0.0226
      3 C         139.5585  143.7654  166.2707 C.3     1  UNL1        0.0033
      4 C         140.3033  143.2070  167.4469 C.3     1  UNL1        0.0159
      5 C         140.7737  142.9134  166.0532 C.3     1  UNL1        0.0033
      6 C         140.9986  142.7955  164.5748 C.3     1  UNL1        0.0226
      7 F         137.8532  140.2035  157.9637 F       1  UNL1       -0.2017
      8 C         138.3189  141.0295  159.1260 C.ar    1  UNL1        0.1690
      9 C         138.7946  142.4348  158.9047 C.ar    1  UNL1        0.0526
     10 C         139.2602  143.2607  160.0670 C.ar    1  UNL1        0.1011
     11 N         139.7802  144.6649  160.1562 N.ar    1  UNL1       -0.2239
     12 C         140.0915  144.9533  161.5949 C.ar    1  UNL1        0.1785
     13 N         139.7639  143.7275  162.3949 N.ar    1  UNL1       -0.3109
     14 C         139.2502  142.6814  161.4506 C.ar    1  UNL1        0.0813
     15 C         138.7745  141.2761  161.6719 C.ar    1  UNL1        0.0507
     16 C         138.3088  140.4502  160.5095 C.ar    1  UNL1        0.1689
     17 F         137.8331  139.0449  160.7309 F       1  UNL1       -0.2017
     18 C         140.4617  143.0542  168.9306 C.3     1  UNL1        0.0689
     19 N         140.2433  141.7171  169.5744 N.3     1  UNL1       -0.2882
     20 H         139.2414  141.5301  169.5320 H       1  UNL1        0.1237
     21 C         140.9340  140.5014  169.0314 C.3     1  UNL1        0.1731
     22 C         140.4499  139.8685  167.7605 C.ar    1  UNL1        0.0003
     23 C         138.9825  139.6432  167.5465 C.ar    1  UNL1       -0.0018
     24 C         138.4984  139.0103  166.2756 C.ar    1  UNL1        0.0111
     25 C         139.4817  138.6026  165.2189 C.ar    1  UNL1        0.0577
     26 CL        138.9976  137.9697  163.9480 Cl      1  UNL1       -0.0822
     27 C         140.9492  138.8279  165.4329 C.ar    1  UNL1        0.0111
     28 C         141.4333  139.4608  166.7038 C.ar    1  UNL1       -0.0018
     29 C         142.1089  139.9185  169.7593 C.3     1  UNL1        0.4142
     30 F         143.2838  139.3355  170.4872 F       1  UNL1       -0.1682
     31 F         143.0030  140.9555  169.1468 F       1  UNL1       -0.1682
     32 F         141.2149  138.8814  170.3718 F       1  UNL1       -0.1682
@<TRIPOS>BOND
     1     7     8    1
     2     8     9   ar
     3     9    10   ar
     4    10    11   ar
     5    11    12   ar
     6    12    13   ar
     7     1    13    1
     8     1     2    1
     9     3     2    1
    10     3     4    1
    11     4    18    1
    12    18    19    1
    13    19    21    1
    14    21    22    1
    15    22    23   ar
    16    23    24   ar
    17    24    25   ar
    18    25    26    1
    19    25    27   ar
    20    27    28   ar
    21    21    29    1
    22    29    30    1
    23    29    31    1
    24    29    32    1
    25     4     5    1
    26     5     6    1
    27    13    14   ar
    28    14    15   ar
    29    15    16   ar
    30    16    17    1
    31    16     8   ar
    32    14    10   ar
    33     6     1    1
    34     5     3    1
    35    28    22   ar
    36    19    20    1
@<TRIPOS>MOLECULE
*****
 32 36 0 0 0
SMALL
GASTEIGER

@<TRIPOS>ATOM
      1 C         139.8749  143.4470  163.6982 C.3     1  UNL1        0.0870
      2 C         139.8355  141.9476  163.6883 C.3     1  UNL1        0.0226
      3 C         139.7817  141.4759  165.1112 C.3     1  UNL1        0.0033
      4 C         139.7340  141.3104  166.6013 C.3     1  UNL1        0.0159
      5 C         139.7877  142.6838  166.0005 C.3     1  UNL1        0.0033
      6 C         139.8453  143.9020  165.1272 C.3     1  UNL1        0.0226
      7 F         142.9388  144.2558  157.3271 F       1  UNL1       -0.2017
      8 C         142.2205  144.2091  158.6431 C.ar    1  UNL1        0.1690
      9 C         141.2462  145.2910  159.0045 C.ar    1  UNL1        0.0526
     10 C         140.5279  145.2443  160.3205 C.ar    1  UNL1        0.1011
     11 N         139.5194  146.1614  160.9466 N.ar    1  UNL1       -0.2239
     12 C         139.1521  145.5997  162.2881 C.ar    1  UNL1        0.1785
     13 N         139.9335  144.3355  162.4911 N.ar    1  UNL1       -0.3109
     14 C         140.7838  144.1158  161.2751 C.ar    1  UNL1        0.0813
     15 C         141.7580  143.0341  160.9136 C.ar    1  UNL1        0.0507
     16 C         142.4763  143.0808  159.5976 C.ar    1  UNL1        0.1689
     17 F         143.4506  141.9989  159.2362 F       1  UNL1       -0.2017
     18 C         139.6753  140.4219  167.8084 C.3     1  UNL1        0.0689
     19 N         140.8776  140.2797  168.6940 N.3     1  UNL1       -0.2882
     20 H         141.1504  139.2973  168.6647 H       1  UNL1        0.1237
     21 C         142.1143  141.0810  168.4141 C.3     1  UNL1        0.1731
     22 C         142.8304  140.9228  167.1056 C.ar    1  UNL1        0.0003
     23 C         143.3337  142.1323  166.3751 C.ar    1  UNL1       -0.0018
     24 C         144.0498  141.9741  165.0666 C.ar    1  UNL1        0.0111
     25 C         144.2626  140.6065  164.4886 C.ar    1  UNL1        0.0577
     26 CL        144.9787  140.4483  163.1801 Cl      1  UNL1       -0.0822
     27 C         143.7592  139.3969  165.2191 C.ar    1  UNL1        0.0111
     28 C         143.0432  139.5551  166.5276 C.ar    1  UNL1       -0.0018
     29 C         142.6350  142.0406  169.4427 C.3     1  UNL1        0.4142
     30 F         143.1559  143.0001  170.4714 F       1  UNL1       -0.1682
     31 F         141.5840  143.0350  169.0473 F       1  UNL1       -0.1682
     32 F         143.6861  141.0462  169.8382 F       1  UNL1       -0.1682
@<TRIPOS>BOND
     1     7     8    1
     2     8     9   ar
     3     9    10   ar
     4    10    11   ar
     5    11    12   ar
     6    12    13   ar
     7     1    13    1
     8     1     2    1
     9     3     2    1
    10     3     4    1
    11     4    18    1
    12    18    19    1
    13    19    21    1
    14    21    22    1
    15    22    23   ar
    16    23    24   ar
    17    24    25   ar
    18    25    26    1
    19    25    27   ar
    20    27    28   ar
    21    21    29    1
    22    29    30    1
    23    29    31    1
    24    29    32    1
    25     4     5    1
    26     5     6    1
    27    13    14   ar
    28    14    15   ar
    29    15    16   ar
    30    16    17    1
    31    16     8   ar
    32    14    10   ar
    33     6     1    1
    34     5     3    1
    35    28    22   ar
    36    19    20    1
@<TRIPOS>MOLECULE
*****
 32 36 0 0 0
SMALL
GASTEIGER

@<TRIPOS>ATOM
      1 C         141.4390  140.1928  164.5792 C.3     1  UNL1        0.0870
      2 C         142.1994  140.2870  163.2897 C.3     1  UNL1        0.0226
      3 C         141.2233  140.6144  162.1988 C.3     1  UNL1        0.0033
      4 C         140.0363  140.9361  161.3400 C.3     1  UNL1        0.0159
      5 C         139.8596  140.7225  162.8141 C.3     1  UNL1        0.0033
      6 C         139.9929  140.4619  164.2852 C.3     1  UNL1        0.0226
      7 F         141.8529  142.4855  171.3027 F       1  UNL1       -0.2017
      8 C         141.8500  141.8902  169.9258 C.ar    1  UNL1        0.1690
      9 C         142.6008  140.6197  169.6565 C.ar    1  UNL1        0.0526
     10 C         142.5980  140.0244  168.2797 C.ar    1  UNL1        0.1011
     11 N         143.2416  138.7914  167.7181 N.ar    1  UNL1       -0.2239
     12 C         142.8857  138.7044  166.2635 C.ar    1  UNL1        0.1785
     13 N         142.0222  139.8837  165.9261 N.ar    1  UNL1       -0.3109
     14 C         141.8444  140.6995  167.1722 C.ar    1  UNL1        0.0813
     15 C         141.0937  141.9699  167.4416 C.ar    1  UNL1        0.0507
     16 C         141.0965  142.5652  168.8184 C.ar    1  UNL1        0.1689
     17 F         140.3457  143.8356  169.0877 F       1  UNL1       -0.2017
     18 C         139.4531  141.2452  159.9930 C.3     1  UNL1        0.0689
     19 N         139.1324  142.6628  159.6220 N.3     1  UNL1       -0.2882
     20 H         138.1330  142.7900  159.7815 H       1  UNL1        0.1237
     21 C         139.8293  143.7956  160.3155 C.3     1  UNL1        0.1731
     22 C         139.5137  144.1053  161.7490 C.ar    1  UNL1        0.0003
     23 C         140.5817  144.6477  162.6517 C.ar    1  UNL1       -0.0018
     24 C         140.2662  144.9574  164.0851 C.ar    1  UNL1        0.0111
     25 C         138.8827  144.7247  164.6157 C.ar    1  UNL1        0.0577
     26 CL        138.5672  145.0344  166.0490 Cl      1  UNL1       -0.0822
     27 C         137.8146  144.1822  163.7129 C.ar    1  UNL1        0.0111
     28 C         138.1301  143.8725  162.2795 C.ar    1  UNL1       -0.0018
     29 C         140.8417  144.6188  159.5758 C.3     1  UNL1        0.4142
     30 F         141.8543  145.4419  158.8361 F       1  UNL1       -0.1682
     31 F         139.8430  145.7302  159.4454 F       1  UNL1       -0.1682
     32 F         141.8406  143.5073  159.7063 F       1  UNL1       -0.1682
@<TRIPOS>BOND
     1     7     8    1
     2     8     9   ar
     3     9    10   ar
     4    10    11   ar
     5    11    12   ar
     6    12    13   ar
     7     1    13    1
     8     1     2    1
     9     3     2    1
    10     3     4    1
    11     4    18    1
    12    18    19    1
    13    19    21    1
    14    21    22    1
    15    22    23   ar
    16    23    24   ar
    17    24    25   ar
    18    25    26    1
    19    25    27   ar
    20    27    28   ar
    21    21    29    1
    22    29    30    1
    23    29    31    1
    24    29    32    1
    25     4     5    1
    26     5     6    1
    27    13    14   ar
    28    14    15   ar
    29    15    16   ar
    30    16    17    1
    31    16     8   ar
    32    14    10   ar
    33     6     1    1
    34     5     3    1
    35    28    22   ar
    36    19    20    1
@<TRIPOS>MOLECULE
*****
 32 36 0 0 0
SMALL
GASTEIGER

@<TRIPOS>ATOM
      1 C         139.7728  140.3391  164.8365 C.3     1  UNL1        0.0870
      2 C         138.8991  140.5795  163.6411 C.3     1  UNL1        0.0226
      3 C         139.7873  140.8866  162.4720 C.3     1  UNL1        0.0033
      4 C         140.9071  141.1551  161.5108 C.3     1  UNL1        0.0159
      5 C         141.2100  140.8360  162.9448 C.3     1  UNL1        0.0033
      6 C         141.2010  140.4977  164.4061 C.3     1  UNL1        0.0226
      7 F         140.5443  141.9890  171.7151 F       1  UNL1       -0.2017
      8 C         140.2838  141.5415  170.3072 C.ar    1  UNL1        0.1690
      9 C         139.2925  140.4480  170.0392 C.ar    1  UNL1        0.0526
     10 C         139.0320  140.0005  168.6314 C.ar    1  UNL1        0.1011
     11 N         138.1188  138.9548  168.0634 N.ar    1  UNL1       -0.2239
     12 C         138.2852  138.9544  166.5727 C.ar    1  UNL1        0.1785
     13 N         139.3012  139.9998  166.2194 N.ar    1  UNL1       -0.3109
     14 C         139.7627  140.6464  167.4917 C.ar    1  UNL1        0.0813
     15 C         140.7540  141.7398  167.7599 C.ar    1  UNL1        0.0507
     16 C         141.0145  142.1873  169.1676 C.ar    1  UNL1        0.1689
     17 F         142.0058  143.2807  169.4357 F       1  UNL1       -0.2017
     18 C         141.3788  141.4944  160.1279 C.3     1  UNL1        0.0689
     19 N         141.7884  142.8994  159.7988 N.3     1  UNL1       -0.2882
     20 H         141.9968  142.9192  158.8005 H       1  UNL1        0.1237
     21 C         140.8485  144.0370  160.0675 C.3     1  UNL1        0.1731
     22 C         140.3289  144.2689  161.4555 C.ar    1  UNL1        0.0003
     23 C         138.8557  144.1933  161.7271 C.ar    1  UNL1       -0.0018
     24 C         138.3361  144.4251  163.1150 C.ar    1  UNL1        0.0111
     25 C         139.2896  144.7325  164.2312 C.ar    1  UNL1        0.0577
     26 CL        138.7700  144.9644  165.6191 Cl      1  UNL1       -0.0822
     27 C         140.7629  144.8082  163.9596 C.ar    1  UNL1        0.0111
     28 C         141.2825  144.5764  162.5717 C.ar    1  UNL1       -0.0018
     29 C         140.4282  144.9430  158.9484 C.3     1  UNL1        0.4142
     30 F         140.0079  145.8491  157.8292 F       1  UNL1       -0.1682
     31 F         139.3994  143.9385  158.5214 F       1  UNL1       -0.1682
     32 F         141.4570  145.9477  159.3754 F       1  UNL1       -0.1682
@<TRIPOS>BOND
     1     7     8    1
     2     8     9   ar
     3     9    10   ar
     4    10    11   ar
     5    11    12   ar
     6    12    13   ar
     7     1    13    1
     8     1     2    1
     9     3     2    1
    10     3     4    1
    11     4    18    1
    12    18    19    1
    13    19    21    1
    14    21    22    1
    15    22    23   ar
    16    23    24   ar
    17    24    25   ar
    18    25    26    1
    19    25    27   ar
    20    27    28   ar
    21    21    29    1
    22    29    30    1
    23    29    31    1
    24    29    32    1
    25     4     5    1
    26     5     6    1
    27    13    14   ar
    28    14    15   ar
    29    15    16   ar
    30    16    17    1
    31    16     8   ar
    32    14    10   ar
    33     6     1    1
    34     5     3    1
    35    28    22   ar
    36    19    20    1
