@<TRIPOS>MOLECULE
*****
 27 29 0 0 0
SMALL
GASTEIGER

@<TRIPOS>ATOM
      1 N         138.3317  143.3106  162.5898 N.3     1  UNL1       -0.2700
      2 C         138.8250  142.8599  161.2468 C.3     1  UNL1        0.0897
      3 C         138.5757  141.4531  160.7897 C.3     1  UNL1        0.0897
      4 N         137.8331  140.4972  161.6754 N.3     1  UNL1       -0.2700
      5 C         137.3398  140.9478  163.0184 C.3     1  UNL1        0.0897
      6 C         137.5891  142.3545  163.4756 C.3     1  UNL1        0.0897
      7 C         138.5811  144.7172  163.0470 C.3     1  UNL1        0.0770
      8 C         139.3682  144.9707  164.2984 C.3     1  UNL1        0.0467
      9 C         141.1657  143.3012  165.1539 C.ar    1  UNL1        0.1347
     10 C         142.5987  142.8664  165.2395 C.ar    1  UNL1        0.0366
     11 C         143.6674  143.6663  164.5552 C.ar    1  UNL1        0.0031
     12 C         143.3029  144.9010  163.7854 C.ar    1  UNL1       -0.0001
     13 C         141.8699  145.3358  163.6998 C.ar    1  UNL1       -0.0012
     14 C         140.8013  144.5359  164.3841 C.ar    1  UNL1        0.0132
     15 O         140.0971  142.5013  165.8382 O.3     1  UNL1       -0.4727
     16 C         140.1444  141.0025  165.8040 C.3     1  UNL1        0.2434
     17 F         138.9051  139.6140  167.6169 F       1  UNL1       -0.2302
     18 C         140.1686  140.2235  167.0856 C.3     1  UNL1        0.2403
     19 C         137.5838  139.0905  161.2182 C.3     1  UNL1        0.0769
     20 C         138.1251  137.9374  162.0102 C.3     1  UNL1        0.0445
     21 C         139.5587  137.9379  162.4516 C.ar    1  UNL1       -0.0102
     22 C         140.6537  138.1245  161.4436 C.ar    1  UNL1       -0.0034
     23 C         142.0873  138.1251  161.8849 C.ar    1  UNL1       -0.0003
     24 C         142.4259  137.9391  163.3343 C.ar    1  UNL1        0.0008
     25 C         141.3309  137.7524  164.3423 C.ar    1  UNL1        0.0111
     26 C         139.8973  137.7519  163.9010 C.ar    1  UNL1        0.0537
     27 CL        138.8023  137.5653  164.9090 Cl      1  UNL1       -0.0826
@<TRIPOS>BOND
     1    17    18    1
     2    18    16    1
     3    16    15    1
     4    15     9    1
     5     9    10   ar
     6    10    11   ar
     7    11    12   ar
     8    12    13   ar
     9    13    14   ar
    10    14     8    1
    11     8     7    1
    12     7     1    1
    13     1     2    1
    14     2     3    1
    15     3     4    1
    16     4    19    1
    17    19    20    1
    18    20    21    1
    19    21    22   ar
    20    22    23   ar
    21    23    24   ar
    22    24    25   ar
    23    25    26   ar
    24    26    27    1
    25     4     5    1
    26     5     6    1
    27    14     9   ar
    28     6     1    1
    29    26    21   ar
@<TRIPOS>MOLECULE
*****
 27 29 0 0 0
SMALL
GASTEIGER

@<TRIPOS>ATOM
      1 N         139.2178  142.8995  163.0123 N.3     1  UNL1       -0.2700
      2 C         140.3638  142.7333  162.0588 C.3     1  UNL1        0.0897
      3 C         141.7418  143.1705  162.4590 C.3     1  UNL1        0.0897
      4 N         141.9738  143.7739  163.8125 N.3     1  UNL1       -0.2700
      5 C         140.8278  143.9401  164.7659 C.3     1  UNL1        0.0897
      6 C         139.4498  143.5029  164.3659 C.3     1  UNL1        0.0897
      7 C         137.8399  142.4623  162.6123 C.3     1  UNL1        0.0770
      8 C         137.3241  141.1210  163.0424 C.3     1  UNL1        0.0467
      9 C         138.9098  139.4421  164.2327 C.ar    1  UNL1        0.1347
     10 C         139.8069  138.2412  164.1790 C.ar    1  UNL1        0.0366
     11 C         140.0155  137.5182  162.8814 C.ar    1  UNL1        0.0031
     12 C         139.3270  137.9962  161.6374 C.ar    1  UNL1       -0.0001
     13 C         138.4298  139.1971  161.6911 C.ar    1  UNL1       -0.0012
     14 C         138.2213  139.9201  162.9888 C.ar    1  UNL1        0.0132
     15 O         138.7012  140.1650  165.5303 O.3     1  UNL1       -0.4727
     16 C         138.6877  139.4008  166.8209 C.3     1  UNL1        0.2434
     17 F         137.6946  137.0131  166.5698 F       1  UNL1       -0.2302
     18 C         137.5923  138.4138  167.0968 C.3     1  UNL1        0.2403
     19 C         143.3517  144.2111  164.2125 C.3     1  UNL1        0.0769
     20 C         144.1595  143.3727  165.1584 C.3     1  UNL1        0.0445
     21 C         144.0026  141.8809  165.1595 C.ar    1  UNL1       -0.0102
     22 C         142.9778  141.2353  166.0443 C.ar    1  UNL1       -0.0034
     23 C         142.8209  139.7435  166.0455 C.ar    1  UNL1       -0.0003
     24 C         143.6888  138.8974  165.1619 C.ar    1  UNL1        0.0008
     25 C         144.7136  139.5431  164.2771 C.ar    1  UNL1        0.0111
     26 C         144.8705  141.0348  164.2759 C.ar    1  UNL1        0.0537
     27 CL        145.8953  141.6805  163.3911 Cl      1  UNL1       -0.0826
@<TRIPOS>BOND
     1    17    18    1
     2    18    16    1
     3    16    15    1
     4    15     9    1
     5     9    10   ar
     6    10    11   ar
     7    11    12   ar
     8    12    13   ar
     9    13    14   ar
    10    14     8    1
    11     8     7    1
    12     7     1    1
    13     1     2    1
    14     2     3    1
    15     3     4    1
    16     4    19    1
    17    19    20    1
    18    20    21    1
    19    21    22   ar
    20    22    23   ar
    21    23    24   ar
    22    24    25   ar
    23    25    26   ar
    24    26    27    1
    25     4     5    1
    26     5     6    1
    27    14     9   ar
    28     6     1    1
    29    26    21   ar
@<TRIPOS>MOLECULE
*****
 27 29 0 0 0
SMALL
GASTEIGER

@<TRIPOS>ATOM
      1 N         142.1668  143.6575  163.5991 N.3     1  UNL1       -0.2700
      2 C         141.9933  142.7517  162.4162 C.3     1  UNL1        0.0897
      3 C         140.6168  142.3576  161.9688 C.3     1  UNL1        0.0897
      4 N         139.4139  142.8693  162.7044 N.3     1  UNL1       -0.2700
      5 C         139.5874  143.7752  163.8874 C.3     1  UNL1        0.0897
      6 C         140.9638  144.1693  164.3347 C.3     1  UNL1        0.0897
      7 C         143.5432  144.0516  164.0465 C.3     1  UNL1        0.0770
      8 C         144.2520  143.2433  165.0925 C.3     1  UNL1        0.0467
      9 C         142.9884  141.2878  166.2454 C.ar    1  UNL1        0.1347
     10 C         142.7084  139.8200  166.3763 C.ar    1  UNL1        0.0366
     11 C         143.4120  138.8399  165.4852 C.ar    1  UNL1        0.0031
     12 C         144.3957  139.3275  164.4631 C.ar    1  UNL1       -0.0001
     13 C         144.6757  140.7953  164.3323 C.ar    1  UNL1       -0.0012
     14 C         143.9720  141.7754  165.2234 C.ar    1  UNL1        0.0132
     15 O         142.2847  142.2680  167.1366 O.3     1  UNL1       -0.4727
     16 C         140.8075  142.1461  167.3667 C.3     1  UNL1        0.2434
     17 F         140.3321  139.9916  168.7388 F       1  UNL1       -0.2302
     18 C         140.2944  141.4859  168.6120 C.3     1  UNL1        0.2403
     19 C         138.0375  142.4752  162.2570 C.3     1  UNL1        0.0769
     20 C         137.2488  141.4755  163.0498 C.3     1  UNL1        0.0445
     21 C         137.9434  140.3110  163.6914 C.ar    1  UNL1       -0.0102
     22 C         138.3279  140.3724  165.1400 C.ar    1  UNL1       -0.0034
     23 C         139.0224  139.2080  165.7816 C.ar    1  UNL1       -0.0003
     24 C         139.3324  137.9822  164.9746 C.ar    1  UNL1        0.0008
     25 C         138.9479  137.9208  163.5261 C.ar    1  UNL1        0.0111
     26 C         138.2534  139.0852  162.8844 C.ar    1  UNL1        0.0537
     27 CL        137.8689  139.0237  161.4359 Cl      1  UNL1       -0.0826
@<TRIPOS>BOND
     1    17    18    1
     2    18    16    1
     3    16    15    1
     4    15     9    1
     5     9    10   ar
     6    10    11   ar
     7    11    12   ar
     8    12    13   ar
     9    13    14   ar
    10    14     8    1
    11     8     7    1
    12     7     1    1
    13     1     2    1
    14     2     3    1
    15     3     4    1
    16     4    19    1
    17    19    20    1
    18    20    21    1
    19    21    22   ar
    20    22    23   ar
    21    23    24   ar
    22    24    25   ar
    23    25    26   ar
    24    26    27    1
    25     4     5    1
    26     5     6    1
    27    14     9   ar
    28     6     1    1
    29    26    21   ar
@<TRIPOS>MOLECULE
*****
 27 29 0 0 0
SMALL
GASTEIGER

@<TRIPOS>ATOM
      1 N         140.6741  139.6157  164.6687 N.3     1  UNL1       -0.2700
      2 C         141.5197  140.0513  165.8285 C.3     1  UNL1        0.0897
      3 C         142.9866  140.2988  165.6361 C.3     1  UNL1        0.0897
      4 N         143.6078  140.1107  164.2838 N.3     1  UNL1       -0.2700
      5 C         142.7622  139.6751  163.1240 C.3     1  UNL1        0.0897
      6 C         141.2954  139.4276  163.3164 C.3     1  UNL1        0.0897
      7 C         139.2072  139.3682  164.8611 C.3     1  UNL1        0.0770
      8 C         138.2973  140.5022  165.2301 C.3     1  UNL1        0.0467
      9 C         137.8889  142.1379  163.2533 C.ar    1  UNL1        0.1347
     10 C         138.0766  143.4858  162.6225 C.ar    1  UNL1        0.0366
     11 C         138.8606  144.5459  163.3377 C.ar    1  UNL1        0.0031
     12 C         139.4568  144.2581  164.6837 C.ar    1  UNL1       -0.0001
     13 C         139.2690  142.9103  165.3145 C.ar    1  UNL1       -0.0012
     14 C         138.4851  141.8501  164.5992 C.ar    1  UNL1        0.0132
     15 O         137.1049  141.0778  162.5381 O.3     1  UNL1       -0.4727
     16 C         137.7786  140.2037  161.5222 C.3     1  UNL1        0.2434
     17 F         138.8841  137.8604  161.3294 F       1  UNL1       -0.2302
     18 C         137.6879  138.7110  161.6390 C.3     1  UNL1        0.2403
     19 C         145.0747  140.3582  164.0914 C.3     1  UNL1        0.0769
     20 C         145.5553  141.7067  163.6436 C.3     1  UNL1        0.0445
     21 C         144.5656  142.7875  163.3235 C.ar    1  UNL1       -0.0102
     22 C         143.9691  142.8754  161.9500 C.ar    1  UNL1       -0.0034
     23 C         142.9794  143.9561  161.6298 C.ar    1  UNL1       -0.0003
     24 C         142.5862  144.9489  162.6832 C.ar    1  UNL1        0.0008
     25 C         143.1826  144.8609  164.0568 C.ar    1  UNL1        0.0111
     26 C         144.1723  143.7802  164.3769 C.ar    1  UNL1        0.0537
     27 CL        144.7687  143.6923  165.7504 Cl      1  UNL1       -0.0826
@<TRIPOS>BOND
     1    17    18    1
     2    18    16    1
     3    16    15    1
     4    15     9    1
     5     9    10   ar
     6    10    11   ar
     7    11    12   ar
     8    12    13   ar
     9    13    14   ar
    10    14     8    1
    11     8     7    1
    12     7     1    1
    13     1     2    1
    14     2     3    1
    15     3     4    1
    16     4    19    1
    17    19    20    1
    18    20    21    1
    19    21    22   ar
    20    22    23   ar
    21    23    24   ar
    22    24    25   ar
    23    25    26   ar
    24    26    27    1
    25     4     5    1
    26     5     6    1
    27    14     9   ar
    28     6     1    1
    29    26    21   ar
@<TRIPOS>MOLECULE
*****
 27 29 0 0 0
SMALL
GASTEIGER

@<TRIPOS>ATOM
      1 N         138.2999  140.1912  161.9473 N.3     1  UNL1       -0.2700
      2 C         137.3639  141.0279  162.7681 C.3     1  UNL1        0.0897
      3 C         137.6428  142.4881  162.9683 C.3     1  UNL1        0.0897
      4 N         138.8578  143.1116  162.3477 N.3     1  UNL1       -0.2700
      5 C         139.7938  142.2749  161.5269 C.3     1  UNL1        0.0897
      6 C         139.5149  140.8147  161.3267 C.3     1  UNL1        0.0897
      7 C         138.0211  138.7311  161.7471 C.3     1  UNL1        0.0770
      8 C         138.4626  137.7349  162.7780 C.3     1  UNL1        0.0467
      9 C         140.9625  137.8466  163.4765 C.ar    1  UNL1        0.1347
     10 C         142.0165  138.2195  164.4766 C.ar    1  UNL1        0.0366
     11 C         141.6244  138.8534  165.7783 C.ar    1  UNL1        0.0031
     12 C         140.1785  139.1145  166.0799 C.ar    1  UNL1       -0.0001
     13 C         139.1246  138.7417  165.0798 C.ar    1  UNL1       -0.0012
     14 C         139.5166  138.1077  163.7781 C.ar    1  UNL1        0.0132
     15 O         141.3546  137.2127  162.1748 O.3     1  UNL1       -0.4727
     16 C         142.1698  137.9847  161.1801 C.3     1  UNL1        0.2434
     17 F         144.4321  138.7496  162.2033 F       1  UNL1       -0.2302
     18 C         143.6675  137.9128  161.2208 C.3     1  UNL1        0.2403
     19 C         139.1367  144.5717  162.5479 C.3     1  UNL1        0.0769
     20 C         139.8060  145.0420  163.8052 C.3     1  UNL1        0.0445
     21 C         141.1685  144.5288  164.1665 C.ar    1  UNL1       -0.0102
     22 C         142.3930  145.2178  163.6412 C.ar    1  UNL1       -0.0034
     23 C         143.7554  144.7048  164.0025 C.ar    1  UNL1       -0.0003
     24 C         143.8933  143.5027  164.8890 C.ar    1  UNL1        0.0008
     25 C         142.6689  142.8137  165.4143 C.ar    1  UNL1        0.0111
     26 C         141.3064  143.3268  165.0530 C.ar    1  UNL1        0.0537
     27 CL        140.0820  142.6378  165.5783 Cl      1  UNL1       -0.0826
@<TRIPOS>BOND
     1    17    18    1
     2    18    16    1
     3    16    15    1
     4    15     9    1
     5     9    10   ar
     6    10    11   ar
     7    11    12   ar
     8    12    13   ar
     9    13    14   ar
    10    14     8    1
    11     8     7    1
    12     7     1    1
    13     1     2    1
    14     2     3    1
    15     3     4    1
    16     4    19    1
    17    19    20    1
    18    20    21    1
    19    21    22   ar
    20    22    23   ar
    21    23    24   ar
    22    24    25   ar
    23    25    26   ar
    24    26    27    1
    25     4     5    1
    26     5     6    1
    27    14     9   ar
    28     6     1    1
    29    26    21   ar
@<TRIPOS>MOLECULE
*****
 27 29 0 0 0
SMALL
GASTEIGER

@<TRIPOS>ATOM
      1 N         143.4035  140.2339  163.9371 N.3     1  UNL1       -0.2700
      2 C         142.5441  140.6530  162.7813 C.3     1  UNL1        0.0897
      3 C         142.4261  142.1046  162.4221 C.3     1  UNL1        0.0897
      4 N         143.1675  143.1370  163.2186 N.3     1  UNL1       -0.2700
      5 C         144.0268  142.7179  164.3744 C.3     1  UNL1        0.0897
      6 C         144.1448  141.2664  164.7337 C.3     1  UNL1        0.0897
      7 C         143.5215  138.7824  164.2964 C.3     1  UNL1        0.0770
      8 C         142.7104  138.2211  165.4264 C.3     1  UNL1        0.0467
      9 C         140.8839  139.6329  166.6183 C.ar    1  UNL1        0.1347
     10 C         139.4457  140.0281  166.7778 C.ar    1  UNL1        0.0366
     11 C         138.3959  139.4067  165.9050 C.ar    1  UNL1        0.0031
     12 C         138.7842  138.3901  164.8727 C.ar    1  UNL1       -0.0001
     13 C         140.2224  137.9949  164.7132 C.ar    1  UNL1       -0.0012
     14 C         141.2722  138.6163  165.5860 C.ar    1  UNL1        0.0132
     15 O         141.9337  140.2543  167.4911 O.3     1  UNL1       -0.4727
     16 C         142.0785  141.7463  167.5436 C.3     1  UNL1        0.2434
     17 F         140.0961  143.1224  168.5064 F       1  UNL1       -0.2302
     18 C         141.4604  142.5206  168.6699 C.3     1  UNL1        0.2403
     19 C         143.0494  144.5886  162.8594 C.3     1  UNL1        0.0769
     20 C         141.9842  145.4337  163.4927 C.3     1  UNL1        0.0445
     21 C         140.6295  144.8513  163.7677 C.ar    1  UNL1       -0.0102
     22 C         140.4244  143.9573  164.9546 C.ar    1  UNL1       -0.0034
     23 C         139.0697  143.3749  165.2297 C.ar    1  UNL1       -0.0003
     24 C         137.9202  143.6865  164.3179 C.ar    1  UNL1        0.0008
     25 C         138.1253  144.5804  163.1309 C.ar    1  UNL1        0.0111
     26 C         139.4800  145.1628  162.8559 C.ar    1  UNL1        0.0537
     27 CL        139.6851  146.0568  161.6689 Cl      1  UNL1       -0.0826
@<TRIPOS>BOND
     1    17    18    1
     2    18    16    1
     3    16    15    1
     4    15     9    1
     5     9    10   ar
     6    10    11   ar
     7    11    12   ar
     8    12    13   ar
     9    13    14   ar
    10    14     8    1
    11     8     7    1
    12     7     1    1
    13     1     2    1
    14     2     3    1
    15     3     4    1
    16     4    19    1
    17    19    20    1
    18    20    21    1
    19    21    22   ar
    20    22    23   ar
    21    23    24   ar
    22    24    25   ar
    23    25    26   ar
    24    26    27    1
    25     4     5    1
    26     5     6    1
    27    14     9   ar
    28     6     1    1
    29    26    21   ar
@<TRIPOS>MOLECULE
*****
 27 29 0 0 0
SMALL
GASTEIGER

@<TRIPOS>ATOM
      1 N         139.4583  142.8681  162.6337 N.3     1  UNL1       -0.2700
      2 C         140.7138  142.4823  161.9091 C.3     1  UNL1        0.0897
      3 C         142.0450  142.9608  162.4081 C.3     1  UNL1        0.0897
      4 N         142.1207  143.8251  163.6317 N.3     1  UNL1       -0.2700
      5 C         140.8653  144.2109  164.3563 C.3     1  UNL1        0.0897
      6 C         139.5341  143.7325  163.8573 C.3     1  UNL1        0.0897
      7 C         138.1272  142.3896  162.1347 C.3     1  UNL1        0.0770
      8 C         137.3238  141.4215  162.9515 C.3     1  UNL1        0.0467
      9 C         138.4343  139.0733  163.0084 C.ar    1  UNL1        0.1347
     10 C         139.1247  137.9810  163.7701 C.ar    1  UNL1        0.0366
     11 C         139.3953  138.1445  165.2364 C.ar    1  UNL1        0.0031
     12 C         138.9754  139.4003  165.9411 C.ar    1  UNL1       -0.0001
     13 C         138.2849  140.4926  165.1795 C.ar    1  UNL1       -0.0012
     14 C         138.0144  140.3291  163.7132 C.ar    1  UNL1        0.0132
     15 O         138.1637  138.9098  161.5421 O.3     1  UNL1       -0.4727
     16 C         139.1922  138.2717  160.6563 C.3     1  UNL1        0.2434
     17 F         141.4011  139.2091  161.6525 F       1  UNL1       -0.2302
     18 C         140.5282  138.9265  160.4657 C.3     1  UNL1        0.2403
     19 C         143.4519  144.3036  164.1307 C.3     1  UNL1        0.0769
     20 C         144.2271  143.4749  165.1116 C.3     1  UNL1        0.0445
     21 C         144.0316  141.9883  165.1572 C.ar    1  UNL1       -0.0102
     22 C         143.0069  141.3946  166.0778 C.ar    1  UNL1       -0.0034
     23 C         142.8113  139.9081  166.1234 C.ar    1  UNL1       -0.0003
     24 C         143.6405  139.0154  165.2485 C.ar    1  UNL1        0.0008
     25 C         144.6652  139.6092  164.3280 C.ar    1  UNL1        0.0111
     26 C         144.8608  141.0956  164.2823 C.ar    1  UNL1        0.0537
     27 CL        145.8855  141.6894  163.3618 Cl      1  UNL1       -0.0826
@<TRIPOS>BOND
     1    17    18    1
     2    18    16    1
     3    16    15    1
     4    15     9    1
     5     9    10   ar
     6    10    11   ar
     7    11    12   ar
     8    12    13   ar
     9    13    14   ar
    10    14     8    1
    11     8     7    1
    12     7     1    1
    13     1     2    1
    14     2     3    1
    15     3     4    1
    16     4    19    1
    17    19    20    1
    18    20    21    1
    19    21    22   ar
    20    22    23   ar
    21    23    24   ar
    22    24    25   ar
    23    25    26   ar
    24    26    27    1
    25     4     5    1
    26     5     6    1
    27    14     9   ar
    28     6     1    1
    29    26    21   ar
@<TRIPOS>MOLECULE
*****
 27 29 0 0 0
SMALL
GASTEIGER

@<TRIPOS>ATOM
      1 N         141.8596  138.9061  162.2002 N.3     1  UNL1       -0.2700
      2 C         141.9908  140.2873  161.6300 C.3     1  UNL1        0.0897
      3 C         142.9691  141.2552  162.2268 C.3     1  UNL1        0.0897
      4 N         143.8161  140.8420  163.3937 N.3     1  UNL1       -0.2700
      5 C         143.6849  139.4608  163.9639 C.3     1  UNL1        0.0897
      6 C         142.7067  138.4929  163.3672 C.3     1  UNL1        0.0897
      7 C         140.8813  137.9382  161.6035 C.3     1  UNL1        0.0770
      8 C         139.4243  138.0372  161.9461 C.3     1  UNL1        0.0467
      9 C         138.5914  139.9019  163.5522 C.ar    1  UNL1        0.1347
     10 C         138.1716  140.3438  164.9227 C.ar    1  UNL1        0.0366
     11 C         138.1650  139.3632  166.0578 C.ar    1  UNL1        0.0031
     12 C         138.5781  137.9406  165.8223 C.ar    1  UNL1       -0.0001
     13 C         138.9979  137.4986  164.4518 C.ar    1  UNL1       -0.0012
     14 C         139.0045  138.4793  163.3167 C.ar    1  UNL1        0.0132
     15 O         138.5980  140.8825  162.4171 O.3     1  UNL1       -0.4727
     16 C         137.6606  142.0533  162.4321 C.3     1  UNL1        0.2434
     17 F         137.5152  144.0692  164.0647 F       1  UNL1       -0.2302
     18 C         138.1482  143.3988  162.8815 C.3     1  UNL1        0.2403
     19 C         144.7944  141.8099  163.9904 C.3     1  UNL1        0.0769
     20 C         144.3169  142.8716  164.9363 C.3     1  UNL1        0.0445
     21 C         143.0174  142.6975  165.6651 C.ar    1  UNL1       -0.0102
     22 C         142.9671  141.8848  166.9248 C.ar    1  UNL1       -0.0034
     23 C         141.6677  141.7106  167.6536 C.ar    1  UNL1       -0.0003
     24 C         140.4186  142.3492  167.1227 C.ar    1  UNL1        0.0008
     25 C         140.4689  143.1620  165.8630 C.ar    1  UNL1        0.0111
     26 C         141.7683  143.3361  165.1342 C.ar    1  UNL1        0.0537
     27 CL        141.8186  144.1489  163.8745 Cl      1  UNL1       -0.0826
@<TRIPOS>BOND
     1    17    18    1
     2    18    16    1
     3    16    15    1
     4    15     9    1
     5     9    10   ar
     6    10    11   ar
     7    11    12   ar
     8    12    13   ar
     9    13    14   ar
    10    14     8    1
    11     8     7    1
    12     7     1    1
    13     1     2    1
    14     2     3    1
    15     3     4    1
    16     4    19    1
    17    19    20    1
    18    20    21    1
    19    21    22   ar
    20    22    23   ar
    21    23    24   ar
    22    24    25   ar
    23    25    26   ar
    24    26    27    1
    25     4     5    1
    26     5     6    1
    27    14     9   ar
    28     6     1    1
    29    26    21   ar
@<TRIPOS>MOLECULE
*****
 27 29 0 0 0
SMALL
GASTEIGER

@<TRIPOS>ATOM
      1 N         143.0721  143.3089  163.3655 N.3     1  UNL1       -0.2700
      2 C         143.7277  143.0137  164.6819 C.3     1  UNL1        0.0897
      3 C         143.9833  141.5932  165.0906 C.3     1  UNL1        0.0897
      4 N         143.5834  140.4681  164.1829 N.3     1  UNL1       -0.2700
      5 C         142.9278  140.7633  162.8664 C.3     1  UNL1        0.0897
      6 C         142.6721  142.1837  162.4577 C.3     1  UNL1        0.0897
      7 C         142.8164  144.7293  162.9568 C.3     1  UNL1        0.0770
      8 C         141.6659  145.4856  163.5521 C.3     1  UNL1        0.0467
      9 C         139.2467  145.0281  162.7223 C.ar    1  UNL1        0.1347
     10 C         137.9181  144.3548  162.8996 C.ar    1  UNL1        0.0366
     11 C         137.6800  143.4656  164.0839 C.ar    1  UNL1        0.0031
     12 C         138.7705  143.2497  165.0909 C.ar    1  UNL1       -0.0001
     13 C         140.0991  143.9230  164.9137 C.ar    1  UNL1       -0.0012
     14 C         140.3372  144.8122  163.7293 C.ar    1  UNL1        0.0132
     15 O         139.4848  145.9173  161.5380 O.3     1  UNL1       -0.4727
     16 C         140.2692  145.4097  160.3646 C.3     1  UNL1        0.2434
     17 F         140.1529  142.8163  160.4710 F       1  UNL1       -0.2302
     18 C         139.9081  144.0984  159.7318 C.3     1  UNL1        0.2403
     19 C         143.8390  139.0477  164.5916 C.3     1  UNL1        0.0769
     20 C         142.9742  138.3992  165.6315 C.3     1  UNL1        0.0445
     21 C         141.5048  138.6976  165.6774 C.ar    1  UNL1       -0.0102
     22 C         140.9792  139.7339  166.6260 C.ar    1  UNL1       -0.0034
     23 C         139.5099  140.0323  166.6718 C.ar    1  UNL1       -0.0003
     24 C         138.5662  139.2943  165.7692 C.ar    1  UNL1        0.0008
     25 C         139.0919  138.2580  164.8206 C.ar    1  UNL1        0.0111
     26 C         140.5611  137.9596  164.7747 C.ar    1  UNL1        0.0537
     27 CL        141.0867  136.9233  163.8262 Cl      1  UNL1       -0.0826
@<TRIPOS>BOND
     1    17    18    1
     2    18    16    1
     3    16    15    1
     4    15     9    1
     5     9    10   ar
     6    10    11   ar
     7    11    12   ar
     8    12    13   ar
     9    13    14   ar
    10    14     8    1
    11     8     7    1
    12     7     1    1
    13     1     2    1
    14     2     3    1
    15     3     4    1
    16     4    19    1
    17    19    20    1
    18    20    21    1
    19    21    22   ar
    20    22    23   ar
    21    23    24   ar
    22    24    25   ar
    23    25    26   ar
    24    26    27    1
    25     4     5    1
    26     5     6    1
    27    14     9   ar
    28     6     1    1
    29    26    21   ar
