@<TRIPOS>MOLECULE
*****
 25 26 0 0 0
SMALL
GASTEIGER

@<TRIPOS>ATOM
      1 O         139.8478  141.2375  166.7053 O.2     1  UNL1       -0.1499
      2 S         139.7598  140.3665  167.9233 S.O2    1  UNL1        0.0736
      3 O         139.5867  139.5829  168.8356 O.2     1  UNL1       -0.1499
      4 C         140.7970  141.2112  168.6023 C.ar    1  UNL1        0.1290
      5 C         140.3863  142.4407  169.3570 C.ar    1  UNL1        0.0201
      6 C         141.4234  143.2853  170.0359 C.ar    1  UNL1        0.0014
      7 C         142.8712  142.9005  169.9601 C.ar    1  UNL1        0.0000
      8 C         143.2819  141.6709  169.2054 C.ar    1  UNL1        0.0052
      9 C         142.2448  140.8263  168.5265 C.ar    1  UNL1        0.0902
     10 C         142.6554  139.5968  167.7717 C.3     1  UNL1        0.4198
     11 F         143.0661  138.3673  167.0170 F       1  UNL1       -0.1658
     12 F         142.6086  138.8011  169.0424 F       1  UNL1       -0.1658
     13 F         142.7336  140.1150  166.6756 F       1  UNL1       -0.1658
     14 N         138.7227  139.5219  167.2445 N.pl3   1  UNL1       -0.2135
     15 H         137.9495  139.1876  167.7540 H       1  UNL1        0.1738
     16 C         138.8636  139.1866  165.7892 C.ar    1  UNL1        0.0839
     17 C         139.8044  138.1012  165.3573 C.ar    1  UNL1        0.0189
     18 C         139.9453  137.7659  163.9020 C.ar    1  UNL1        0.0244
     19 C         139.1453  138.5161  162.8787 C.ar    1  UNL1        0.1527
     20 N         138.2044  139.6015  163.3106 N.ar    1  UNL1       -0.2385
     21 C         138.0636  139.9368  164.7658 C.ar    1  UNL1        0.1145
     22 C         139.2862  138.1808  161.4234 C.3     1  UNL1        0.4348
     23 F         139.4271  137.8455  159.9682 F       1  UNL1       -0.1644
     24 F         137.8645  138.5982  161.1896 F       1  UNL1       -0.1644
     25 F         140.7078  137.7635  161.6572 F       1  UNL1       -0.1644
@<TRIPOS>BOND
     1     1     2    2
     2     2     3    2
     3     2    14    1
     4    14    16    1
     5    16    17   ar
     6    17    18   ar
     7    18    19   ar
     8    19    22    1
     9    22    23    1
    10    22    24    1
    11    22    25    1
    12    19    20   ar
    13    20    21   ar
    14     2     4    1
    15     4     5   ar
    16     5     6   ar
    17     6     7   ar
    18     7     8   ar
    19     8     9   ar
    20     9    10    1
    21    10    11    1
    22    10    12    1
    23    10    13    1
    24    21    16   ar
    25     9     4   ar
    26    14    15    1
@<TRIPOS>MOLECULE
*****
 25 26 0 0 0
SMALL
GASTEIGER

@<TRIPOS>ATOM
      1 O         141.2710  140.6282  164.3301 O.2     1  UNL1       -0.1499
      2 S         141.5398  139.1778  164.6024 S.O2    1  UNL1        0.0736
      3 O         141.8358  138.0490  164.9404 O.2     1  UNL1       -0.1499
      4 C         140.7305  138.8014  163.3968 C.ar    1  UNL1        0.1290
      5 C         141.3485  138.8579  162.0312 C.ar    1  UNL1        0.0201
      6 C         140.5393  138.4815  160.8256 C.ar    1  UNL1        0.0014
      7 C         139.1121  138.0486  160.9857 C.ar    1  UNL1        0.0000
      8 C         138.4941  137.9920  162.3513 C.ar    1  UNL1        0.0052
      9 C         139.3033  138.3684  163.5568 C.ar    1  UNL1        0.0902
     10 C         138.6854  138.3119  164.9225 C.3     1  UNL1        0.4198
     11 F         138.0674  138.2553  166.2881 F       1  UNL1       -0.1658
     12 F         138.2603  139.7442  164.7894 F       1  UNL1       -0.1658
     13 F         138.9661  137.1548  165.1643 F       1  UNL1       -0.1658
     14 N         142.3491  139.5542  165.8080 N.pl3   1  UNL1       -0.2135
     15 H         143.2877  139.2661  165.8803 H       1  UNL1        0.1738
     16 C         141.7282  140.3696  166.9034 C.ar    1  UNL1        0.0839
     17 C         140.4829  139.8854  167.5849 C.ar    1  UNL1        0.0189
     18 C         139.8621  140.7008  168.6803 C.ar    1  UNL1        0.0244
     19 C         140.4867  142.0003  169.0940 C.ar    1  UNL1        0.1527
     20 N         141.7321  142.4844  168.4124 N.ar    1  UNL1       -0.2385
     21 C         142.3528  141.6691  167.3171 C.ar    1  UNL1        0.1145
     22 C         139.8659  142.8157  170.1894 C.3     1  UNL1        0.4348
     23 F         139.2451  143.6310  171.2848 F       1  UNL1       -0.1644
     24 F         138.8295  141.7509  170.3947 F       1  UNL1       -0.1644
     25 F         140.9022  143.8804  169.9842 F       1  UNL1       -0.1644
@<TRIPOS>BOND
     1     1     2    2
     2     2     3    2
     3     2    14    1
     4    14    16    1
     5    16    17   ar
     6    17    18   ar
     7    18    19   ar
     8    19    22    1
     9    22    23    1
    10    22    24    1
    11    22    25    1
    12    19    20   ar
    13    20    21   ar
    14     2     4    1
    15     4     5   ar
    16     5     6   ar
    17     6     7   ar
    18     7     8   ar
    19     8     9   ar
    20     9    10    1
    21    10    11    1
    22    10    12    1
    23    10    13    1
    24    21    16   ar
    25     9     4   ar
    26    14    15    1
@<TRIPOS>MOLECULE
*****
 25 26 0 0 0
SMALL
GASTEIGER

@<TRIPOS>ATOM
      1 O         140.8744  140.0687  166.8358 O.2     1  UNL1       -0.1499
      2 S         139.8402  139.9868  167.9191 S.O2    1  UNL1        0.0736
      3 O         138.9393  139.8133  168.7156 O.2     1  UNL1       -0.1499
      4 C         140.5433  141.0767  168.6727 C.ar    1  UNL1        0.1290
      5 C         140.0196  142.4814  168.6225 C.ar    1  UNL1        0.0201
      6 C         140.7226  143.5713  169.3761 C.ar    1  UNL1        0.0014
      7 C         141.9492  143.2564  170.1799 C.ar    1  UNL1        0.0000
      8 C         142.4729  141.8517  170.2301 C.ar    1  UNL1        0.0052
      9 C         141.7699  140.7618  169.4765 C.ar    1  UNL1        0.0902
     10 C         142.2936  139.3571  169.5267 C.3     1  UNL1        0.4198
     11 F         142.8173  137.9524  169.5769 F       1  UNL1       -0.1658
     12 F         141.2772  139.0157  170.5757 F       1  UNL1       -0.1658
     13 F         143.1624  139.4929  168.6884 F       1  UNL1       -0.1658
     14 N         139.1372  138.8969  167.1655 N.pl3   1  UNL1       -0.2135
     15 H         138.9034  138.0557  167.6204 H       1  UNL1        0.1738
     16 C         138.7902  139.0888  165.7188 C.ar    1  UNL1        0.0839
     17 C         138.2262  140.3972  165.2499 C.ar    1  UNL1        0.0189
     18 C         137.8793  140.5889  163.8032 C.ar    1  UNL1        0.0244
     19 C         138.0965  139.4723  162.8255 C.ar    1  UNL1        0.1527
     20 N         138.6606  138.1640  163.2944 N.ar    1  UNL1       -0.2385
     21 C         139.0075  137.9722  164.7410 C.ar    1  UNL1        0.1145
     22 C         137.7496  139.6642  161.3788 C.3     1  UNL1        0.4348
     23 F         137.4027  139.8561  159.9321 F       1  UNL1       -0.1644
     24 F         138.1303  138.2406  161.0986 F       1  UNL1       -0.1644
     25 F         137.3689  141.0878  161.6589 F       1  UNL1       -0.1644
@<TRIPOS>BOND
     1     1     2    2
     2     2     3    2
     3     2    14    1
     4    14    16    1
     5    16    17   ar
     6    17    18   ar
     7    18    19   ar
     8    19    22    1
     9    22    23    1
    10    22    24    1
    11    22    25    1
    12    19    20   ar
    13    20    21   ar
    14     2     4    1
    15     4     5   ar
    16     5     6   ar
    17     6     7   ar
    18     7     8   ar
    19     8     9   ar
    20     9    10    1
    21    10    11    1
    22    10    12    1
    23    10    13    1
    24    21    16   ar
    25     9     4   ar
    26    14    15    1
@<TRIPOS>MOLECULE
*****
 25 26 0 0 0
SMALL
GASTEIGER

@<TRIPOS>ATOM
      1 O         142.6048  140.9923  166.3491 O.2     1  UNL1       -0.1499
      2 S         142.6712  140.0089  167.4798 S.O2    1  UNL1        0.0736
      3 O         142.7663  139.1123  168.2942 O.2     1  UNL1       -0.1499
      4 C         142.2484  141.0825  168.4383 C.ar    1  UNL1        0.1290
      5 C         143.2826  141.9220  169.1280 C.ar    1  UNL1        0.0201
      6 C         142.8599  142.9955  170.0865 C.ar    1  UNL1        0.0014
      7 C         141.4029  143.2296  170.3553 C.ar    1  UNL1        0.0000
      8 C         140.3686  142.3901  169.6657 C.ar    1  UNL1        0.0052
      9 C         140.7914  141.3166  168.7072 C.ar    1  UNL1        0.0902
     10 C         139.7571  140.4771  168.0175 C.3     1  UNL1        0.4198
     11 F         138.7229  139.6377  167.3279 F       1  UNL1       -0.1658
     12 F         139.6962  141.4726  166.8971 F       1  UNL1       -0.1658
     13 F         139.7040  139.5939  168.8501 F       1  UNL1       -0.1658
     14 N         143.0940  138.9354  166.5213 N.pl3   1  UNL1       -0.2135
     15 H         143.8901  138.3892  166.7139 H       1  UNL1        0.1738
     16 C         142.3038  138.6939  165.2694 C.ar    1  UNL1        0.0839
     17 C         140.8461  138.3511  165.3569 C.ar    1  UNL1        0.0189
     18 C         140.0560  138.1097  164.1050 C.ar    1  UNL1        0.0244
     19 C         140.7235  138.2111  162.7655 C.ar    1  UNL1        0.1527
     20 N         142.1811  138.5539  162.6780 N.ar    1  UNL1       -0.2385
     21 C         142.9713  138.7953  163.9299 C.ar    1  UNL1        0.1145
     22 C         139.9333  137.9697  161.5136 C.3     1  UNL1        0.4348
     23 F         139.1430  137.7283  160.2617 F       1  UNL1       -0.1644
     24 F         141.1333  138.3262  160.6873 F       1  UNL1       -0.1644
     25 F         138.7332  137.6132  162.3398 F       1  UNL1       -0.1644
@<TRIPOS>BOND
     1     1     2    2
     2     2     3    2
     3     2    14    1
     4    14    16    1
     5    16    17   ar
     6    17    18   ar
     7    18    19   ar
     8    19    22    1
     9    22    23    1
    10    22    24    1
    11    22    25    1
    12    19    20   ar
    13    20    21   ar
    14     2     4    1
    15     4     5   ar
    16     5     6   ar
    17     6     7   ar
    18     7     8   ar
    19     8     9   ar
    20     9    10    1
    21    10    11    1
    22    10    12    1
    23    10    13    1
    24    21    16   ar
    25     9     4   ar
    26    14    15    1
@<TRIPOS>MOLECULE
*****
 25 26 0 0 0
SMALL
GASTEIGER

@<TRIPOS>ATOM
      1 O         141.8229  140.7503  164.4073 O.2     1  UNL1       -0.1499
      2 S         143.2371  140.2914  164.6055 S.O2    1  UNL1        0.0736
      3 O         144.3352  139.8574  164.8921 O.2     1  UNL1       -0.1499
      4 C         143.6315  140.9501  163.3168 C.ar    1  UNL1        0.1290
      5 C         143.4264  140.2338  162.0149 C.ar    1  UNL1        0.0201
      6 C         143.8208  140.8924  160.7263 C.ar    1  UNL1        0.0014
      7 C         144.4202  142.2673  160.7395 C.ar    1  UNL1        0.0000
      8 C         144.6253  142.9836  162.0414 C.ar    1  UNL1        0.0052
      9 C         144.2309  142.3250  163.3300 C.ar    1  UNL1        0.0902
     10 C         144.4360  143.0413  164.6319 C.3     1  UNL1        0.4198
     11 F         144.6411  143.7576  165.9338 F       1  UNL1       -0.1658
     12 F         145.8418  142.5219  164.6962 F       1  UNL1       -0.1658
     13 F         143.3262  143.5296  164.7087 F       1  UNL1       -0.1658
     14 N         142.8428  139.6327  165.8941 N.pl3   1  UNL1       -0.2135
     15 H         143.0576  138.6843  166.0481 H       1  UNL1        0.1738
     16 C         142.1212  140.4190  166.9483 C.ar    1  UNL1        0.0839
     17 C         142.7956  141.5858  167.6069 C.ar    1  UNL1        0.0189
     18 C         142.0741  142.3720  168.6609 C.ar    1  UNL1        0.0244
     19 C         140.6781  141.9914  169.0565 C.ar    1  UNL1        0.1527
     20 N         140.0037  140.8246  168.3979 N.ar    1  UNL1       -0.2385
     21 C         140.7253  140.0384  167.3438 C.ar    1  UNL1        0.1145
     22 C         139.9565  142.7777  170.1106 C.3     1  UNL1        0.4348
     23 F         139.2350  143.5640  171.1647 F       1  UNL1       -0.1644
     24 F         138.9977  141.6403  170.3028 F       1  UNL1       -0.1644
     25 F         140.9153  143.9151  169.9185 F       1  UNL1       -0.1644
@<TRIPOS>BOND
     1     1     2    2
     2     2     3    2
     3     2    14    1
     4    14    16    1
     5    16    17   ar
     6    17    18   ar
     7    18    19   ar
     8    19    22    1
     9    22    23    1
    10    22    24    1
    11    22    25    1
    12    19    20   ar
    13    20    21   ar
    14     2     4    1
    15     4     5   ar
    16     5     6   ar
    17     6     7   ar
    18     7     8   ar
    19     8     9   ar
    20     9    10    1
    21    10    11    1
    22    10    12    1
    23    10    13    1
    24    21    16   ar
    25     9     4   ar
    26    14    15    1
@<TRIPOS>MOLECULE
*****
 25 26 0 0 0
SMALL
GASTEIGER

@<TRIPOS>ATOM
      1 O         140.0536  143.1404  167.9580 O.2     1  UNL1       -0.1499
      2 S         140.9962  142.4793  166.9966 S.O2    1  UNL1        0.0736
      3 O         141.6927  142.0229  166.1118 O.2     1  UNL1       -0.1499
      4 C         141.6176  141.7176  168.1297 C.ar    1  UNL1        0.1290
      5 C         142.8741  142.2239  168.7738 C.ar    1  UNL1        0.0201
      6 C         143.4955  141.4622  169.9068 C.ar    1  UNL1        0.0014
      7 C         142.8605  140.1943  170.3956 C.ar    1  UNL1        0.0000
      8 C         141.6040  139.6880  169.7514 C.ar    1  UNL1        0.0052
      9 C         140.9826  140.4496  168.6185 C.ar    1  UNL1        0.0902
     10 C         139.7261  139.9433  167.9743 C.3     1  UNL1        0.4198
     11 F         138.4697  139.4370  167.3301 F       1  UNL1       -0.1658
     12 F         138.9192  140.5034  169.1079 F       1  UNL1       -0.1658
     13 F         140.2508  139.4430  166.9993 F       1  UNL1       -0.1658
     14 N         140.3749  143.2409  165.8636 N.pl3   1  UNL1       -0.2135
     15 H         140.3993  144.2251  165.8601 H       1  UNL1        0.1738
     16 C         139.7162  142.5030  164.7358 C.ar    1  UNL1        0.0839
     17 C         138.5085  141.6533  164.9995 C.ar    1  UNL1        0.0189
     18 C         137.8499  140.9155  163.8718 C.ar    1  UNL1        0.0244
     19 C         138.3989  141.0274  162.4804 C.ar    1  UNL1        0.1527
     20 N         139.6066  141.8771  162.2167 N.ar    1  UNL1       -0.2385
     21 C         140.2652  142.6149  163.3444 C.ar    1  UNL1        0.1145
     22 C         137.7402  140.2895  161.3527 C.3     1  UNL1        0.4348
     23 F         137.0816  139.5517  160.2249 F       1  UNL1       -0.1644
     24 F         137.5155  139.1120  162.2543 F       1  UNL1       -0.1644
     25 F         137.9650  141.4670  160.4510 F       1  UNL1       -0.1644
@<TRIPOS>BOND
     1     1     2    2
     2     2     3    2
     3     2    14    1
     4    14    16    1
     5    16    17   ar
     6    17    18   ar
     7    18    19   ar
     8    19    22    1
     9    22    23    1
    10    22    24    1
    11    22    25    1
    12    19    20   ar
    13    20    21   ar
    14     2     4    1
    15     4     5   ar
    16     5     6   ar
    17     6     7   ar
    18     7     8   ar
    19     8     9   ar
    20     9    10    1
    21    10    11    1
    22    10    12    1
    23    10    13    1
    24    21    16   ar
    25     9     4   ar
    26    14    15    1
@<TRIPOS>MOLECULE
*****
 25 26 0 0 0
SMALL
GASTEIGER

@<TRIPOS>ATOM
      1 O         142.3994  140.9075  166.4850 O.2     1  UNL1       -0.1499
      2 S         142.6718  139.8054  167.4653 S.O2    1  UNL1        0.0736
      3 O         142.9976  138.8670  168.1650 O.2     1  UNL1       -0.1499
      4 C         141.5906  140.3343  168.3605 C.ar    1  UNL1        0.1290
      5 C         140.1929  139.8029  168.2430 C.ar    1  UNL1        0.0201
      6 C         139.1117  140.3318  169.1382 C.ar    1  UNL1        0.0014
      7 C         139.4283  141.3920  170.1508 C.ar    1  UNL1        0.0000
      8 C         140.8261  141.9234  170.2683 C.ar    1  UNL1        0.0052
      9 C         141.9073  141.3946  169.3732 C.ar    1  UNL1        0.0902
     10 C         143.3051  141.9259  169.4907 C.3     1  UNL1        0.4198
     11 F         144.7029  142.4573  169.6082 F       1  UNL1       -0.1658
     12 F         143.6357  140.8396  170.4708 F       1  UNL1       -0.1658
     13 F         143.1773  142.8518  168.7144 F       1  UNL1       -0.1658
     14 N         143.7530  139.2764  166.5702 N.pl3   1  UNL1       -0.2135
     15 H         144.6628  139.1444  166.9223 H       1  UNL1        0.1738
     16 C         143.4479  138.9486  165.1385 C.ar    1  UNL1        0.0839
     17 C         144.3315  139.4709  164.0448 C.ar    1  UNL1        0.0189
     18 C         144.0264  139.1431  162.6132 C.ar    1  UNL1        0.0244
     19 C         142.8376  138.2930  162.2754 C.ar    1  UNL1        0.1527
     20 N         141.9539  137.7707  163.3692 N.ar    1  UNL1       -0.2385
     21 C         142.2591  138.0985  164.8007 C.ar    1  UNL1        0.1145
     22 C         142.5324  137.9652  160.8438 C.3     1  UNL1        0.4348
     23 F         142.2274  137.6374  159.4122 F       1  UNL1       -0.1644
     24 F         141.2650  138.7626  160.9313 F       1  UNL1       -0.1644
     25 F         143.7999  137.1678  160.7563 F       1  UNL1       -0.1644
@<TRIPOS>BOND
     1     1     2    2
     2     2     3    2
     3     2    14    1
     4    14    16    1
     5    16    17   ar
     6    17    18   ar
     7    18    19   ar
     8    19    22    1
     9    22    23    1
    10    22    24    1
    11    22    25    1
    12    19    20   ar
    13    20    21   ar
    14     2     4    1
    15     4     5   ar
    16     5     6   ar
    17     6     7   ar
    18     7     8   ar
    19     8     9   ar
    20     9    10    1
    21    10    11    1
    22    10    12    1
    23    10    13    1
    24    21    16   ar
    25     9     4   ar
    26    14    15    1
@<TRIPOS>MOLECULE
*****
 25 26 0 0 0
SMALL
GASTEIGER

@<TRIPOS>ATOM
      1 O         140.6721  142.4507  165.9479 O.2     1  UNL1       -0.1499
      2 S         140.1043  141.3955  166.8502 S.O2    1  UNL1        0.0736
      3 O         139.5698  140.4923  167.4623 O.2     1  UNL1       -0.1499
      4 C         140.8947  141.9513  167.9976 C.ar    1  UNL1        0.1290
      5 C         140.3414  143.0838  168.8107 C.ar    1  UNL1        0.0201
      6 C         141.1317  143.6395  169.9581 C.ar    1  UNL1        0.0014
      7 C         142.4754  143.0628  170.2923 C.ar    1  UNL1        0.0000
      8 C         143.0288  141.9303  169.4791 C.ar    1  UNL1        0.0052
      9 C         142.2385  141.3745  168.3318 C.ar    1  UNL1        0.0902
     10 C         142.7918  140.2420  167.5186 C.3     1  UNL1        0.4198
     11 F         143.3452  139.1095  166.7055 F       1  UNL1       -0.1658
     12 F         143.3845  141.2250  166.5529 F       1  UNL1       -0.1658
     13 F         142.3700  139.3400  168.2147 F       1  UNL1       -0.1658
     14 N         139.3139  140.8398  165.7029 N.pl3   1  UNL1       -0.2135
     15 H         138.3374  140.9615  165.6731 H       1  UNL1        0.1738
     16 C         140.0113  140.0986  164.6008 C.ar    1  UNL1        0.0839
     17 C         140.6972  138.7964  164.8899 C.ar    1  UNL1        0.0189
     18 C         141.3945  138.0553  163.7879 C.ar    1  UNL1        0.0244
     19 C         141.4060  138.6165  162.3968 C.ar    1  UNL1        0.1527
     20 N         140.7201  139.9187  162.1078 N.ar    1  UNL1       -0.2385
     21 C         140.0228  140.6598  163.2098 C.ar    1  UNL1        0.1145
     22 C         142.1034  137.8753  161.2948 C.3     1  UNL1        0.4348
     23 F         142.8007  137.1342  160.1928 F       1  UNL1       -0.1644
     24 F         143.2998  137.6856  162.1794 F       1  UNL1       -0.1644
     25 F         140.9070  138.0650  160.4102 F       1  UNL1       -0.1644
@<TRIPOS>BOND
     1     1     2    2
     2     2     3    2
     3     2    14    1
     4    14    16    1
     5    16    17   ar
     6    17    18   ar
     7    18    19   ar
     8    19    22    1
     9    22    23    1
    10    22    24    1
    11    22    25    1
    12    19    20   ar
    13    20    21   ar
    14     2     4    1
    15     4     5   ar
    16     5     6   ar
    17     6     7   ar
    18     7     8   ar
    19     8     9   ar
    20     9    10    1
    21    10    11    1
    22    10    12    1
    23    10    13    1
    24    21    16   ar
    25     9     4   ar
    26    14    15    1
@<TRIPOS>MOLECULE
*****
 25 26 0 0 0
SMALL
GASTEIGER

@<TRIPOS>ATOM
      1 O         139.4099  141.4360  165.6993 O.2     1  UNL1       -0.1499
      2 S         138.9887  140.0253  165.9861 S.O2    1  UNL1        0.0736
      3 O         138.5294  138.9100  166.1327 O.2     1  UNL1       -0.1499
      4 C         140.2099  139.8333  166.8357 C.ar    1  UNL1        0.1290
      5 C         140.1542  140.1252  168.3059 C.ar    1  UNL1        0.0201
      6 C         141.3753  139.9332  169.1555 C.ar    1  UNL1        0.0014
      7 C         142.6523  139.4493  168.5348 C.ar    1  UNL1        0.0000
      8 C         142.7080  139.1574  167.0646 C.ar    1  UNL1        0.0052
      9 C         141.4868  139.3494  166.2150 C.ar    1  UNL1        0.0902
     10 C         141.5426  139.0575  164.7447 C.3     1  UNL1        0.4198
     11 F         141.5983  138.7656  163.2745 F       1  UNL1       -0.1658
     12 F         141.1453  137.6359  165.0119 F       1  UNL1       -0.1658
     13 F         141.8675  140.1715  164.3848 F       1  UNL1       -0.1658
     14 N         137.7674  140.2172  165.1365 N.pl3   1  UNL1       -0.2135
     15 H         136.8732  140.1938  165.5476 H       1  UNL1        0.1738
     16 C         137.9087  140.4447  163.6606 C.ar    1  UNL1        0.0839
     17 C         138.4474  139.3549  162.7819 C.ar    1  UNL1        0.0189
     18 C         138.5886  139.5825  161.3060 C.ar    1  UNL1        0.0244
     19 C         138.1912  140.8999  160.7089 C.ar    1  UNL1        0.1527
     20 N         137.6526  141.9897  161.5875 N.ar    1  UNL1       -0.2385
     21 C         137.5113  141.7621  163.0634 C.ar    1  UNL1        0.1145
     22 C         138.3325  141.1274  159.2329 C.3     1  UNL1        0.4348
     23 F         138.4737  141.3550  157.7570 F       1  UNL1       -0.1644
     24 F         138.3311  139.6450  159.0042 F       1  UNL1       -0.1644
     25 F         138.3338  142.6099  159.4616 F       1  UNL1       -0.1644
@<TRIPOS>BOND
     1     1     2    2
     2     2     3    2
     3     2    14    1
     4    14    16    1
     5    16    17   ar
     6    17    18   ar
     7    18    19   ar
     8    19    22    1
     9    22    23    1
    10    22    24    1
    11    22    25    1
    12    19    20   ar
    13    20    21   ar
    14     2     4    1
    15     4     5   ar
    16     5     6   ar
    17     6     7   ar
    18     7     8   ar
    19     8     9   ar
    20     9    10    1
    21    10    11    1
    22    10    12    1
    23    10    13    1
    24    21    16   ar
    25     9     4   ar
    26    14    15    1
