@<TRIPOS>MOLECULE
*****
 31 35 0 0 0
SMALL
GASTEIGER

@<TRIPOS>ATOM
      1 C         140.0084  138.1164  163.0977 C.2     1  UNL1        0.2257
      2 O         140.9001  136.9224  162.9269 O.2     1  UNL1       -0.2749
      3 N         139.4461  138.8110  161.8930 N.am    1  UNL1       -0.2760
      4 C         138.5543  140.0051  162.0638 C.3     1  UNL1        0.1149
      5 C         137.9920  140.6997  160.8591 C.3     1  UNL1        0.1141
      6 N         138.3214  140.2002  159.4835 N.pl3   1  UNL1       -0.2847
      7 C         139.2131  139.0062  159.3127 C.3     1  UNL1        0.1141
      8 C         139.7755  138.3116  160.5175 C.3     1  UNL1        0.1149
      9 C         140.4915  139.7181  165.0855 C.3     1  UNL1        0.0851
     10 C         140.1621  140.2175  166.4610 C.3     1  UNL1        0.0096
     11 C         139.0202  139.6147  167.2242 C.3     1  UNL1        0.0005
     12 C         138.2076  138.5125  166.6120 C.3     1  UNL1        0.0005
     13 C         138.5370  138.0131  165.2365 C.3     1  UNL1        0.0096
     14 C         139.6789  138.6158  164.4732 C.3     1  UNL1        0.0853
     15 N         142.9767  139.6533  164.3307 N.am    1  UNL1       -0.2959
     16 C         141.6335  140.3209  164.3222 C.2     1  UNL1        0.2231
     17 O         141.4322  141.5912  163.5503 O.2     1  UNL1       -0.2751
     18 H         143.1088  138.8196  164.8373 H       1  UNL1        0.1502
     19 C         144.1187  140.2561  163.5674 C.3     1  UNL1        0.1364
     20 C         145.2738  141.1530  163.2338 C.3     1  UNL1        0.0353
     21 C         144.5532  141.3124  164.5397 C.3     1  UNL1        0.0353
     22 N         144.0427  138.5621  161.0926 N.1     1  UNL1       -0.1943
     23 C         144.0807  139.4092  162.3300 C.1     1  UNL1        0.0896
     24 C         137.7591  140.8948  158.2788 C.ar    1  UNL1        0.1628
     25 N         136.6394  140.3945  157.4152 N.ar    1  UNL1       -0.2284
     26 C         136.4060  141.4021  156.3288 C.ar    1  UNL1        0.0670
     27 C         137.3815  142.5253  156.5211 C.ar    1  UNL1        0.0528
     28 S         138.2177  142.2117  157.7262 S.2     1  UNL1       -0.0513
     29 C         135.3777  141.3039  155.2412 C.3     1  UNL1        0.0409
     30 C         133.9583  141.0780  154.8120 C.3     1  UNL1        0.0063
     31 C         135.0162  141.3597  153.7865 C.3     1  UNL1        0.0063
@<TRIPOS>BOND
     1    22    23    3
     2    23    19    1
     3    19    15    1
     4    15    16   am
     5    16    17    2
     6     9    16    1
     7     9    10    1
     8    10    11    1
     9    11    12    1
    10    12    13    1
    11    13    14    1
    12    14     1    1
    13     1     2    2
    14     1     3   am
    15     3     4    1
    16     4     5    1
    17     5     6    1
    18     6    24    1
    19    24    25   ar
    20    25    26   ar
    21    26    29    1
    22    29    30    1
    23    30    31    1
    24    26    27   ar
    25    27    28   ar
    26     6     7    1
    27     7     8    1
    28    19    20    1
    29    20    21    1
    30    21    19    1
    31    14     9    1
    32     8     3    1
    33    28    24   ar
    34    31    29    1
    35    15    18    1
@<TRIPOS>MOLECULE
*****
 31 35 0 0 0
SMALL
GASTEIGER

@<TRIPOS>ATOM
      1 C         139.8995  142.8294  164.7424 C.2     1  UNL1        0.2257
      2 O         139.8582  143.7703  165.9098 O.2     1  UNL1       -0.2749
      3 N         140.1144  143.3623  163.3568 N.am    1  UNL1       -0.2760
      4 C         140.1557  142.4213  162.1893 C.3     1  UNL1        0.1149
      5 C         140.3705  142.9543  160.8038 C.3     1  UNL1        0.1141
      6 N         140.5440  144.4282  160.5856 N.pl3   1  UNL1       -0.2847
      7 C         140.5026  145.3691  161.7531 C.3     1  UNL1        0.1141
      8 C         140.2878  144.8362  163.1386 C.3     1  UNL1        0.1149
      9 C         140.9291  140.4641  165.0513 C.3     1  UNL1        0.0851
     10 C         140.7557  138.9902  165.2694 C.3     1  UNL1        0.0096
     11 C         139.3793  138.4077  165.3967 C.3     1  UNL1        0.0005
     12 C         138.1763  139.2991  165.3059 C.3     1  UNL1        0.0005
     13 C         138.3497  140.7730  165.0878 C.3     1  UNL1        0.0096
     14 C         139.7261  141.3555  164.9605 C.3     1  UNL1        0.0853
     15 N         143.0465  140.9430  163.6240 N.am    1  UNL1       -0.2959
     16 C         142.3055  141.0466  164.9240 C.2     1  UNL1        0.2231
     17 O         142.9409  141.7328  166.0968 O.2     1  UNL1       -0.2751
     18 H         142.6295  140.4926  162.8543 H       1  UNL1        0.1502
     19 C         144.4229  141.5255  163.4967 C.3     1  UNL1        0.1364
     20 C         145.9139  141.6543  163.5982 C.3     1  UNL1        0.0353
     21 C         145.2309  140.4213  164.1114 C.3     1  UNL1        0.0353
     22 N         143.7628  144.1385  162.1789 N.1     1  UNL1       -0.1943
     23 C         144.0928  142.8320  162.8378 C.1     1  UNL1        0.0896
     24 C         140.7588  144.9612  159.2001 C.ar    1  UNL1        0.1628
     25 N         139.8205  145.8541  158.4435 N.ar    1  UNL1       -0.2284
     26 C         140.4314  146.1395  157.1036 C.ar    1  UNL1        0.0670
     27 C         141.7473  145.4230  157.0320 C.ar    1  UNL1        0.0528
     28 S         141.9496  144.6948  158.3277 S.2     1  UNL1       -0.0513
     29 C         139.8317  146.9918  156.0248 C.3     1  UNL1        0.0409
     30 C         139.7344  147.3795  154.5790 C.3     1  UNL1        0.0063
     31 C         138.8903  148.0804  155.6020 C.3     1  UNL1        0.0063
@<TRIPOS>BOND
     1    22    23    3
     2    23    19    1
     3    19    15    1
     4    15    16   am
     5    16    17    2
     6     9    16    1
     7     9    10    1
     8    10    11    1
     9    11    12    1
    10    12    13    1
    11    13    14    1
    12    14     1    1
    13     1     2    2
    14     1     3   am
    15     3     4    1
    16     4     5    1
    17     5     6    1
    18     6    24    1
    19    24    25   ar
    20    25    26   ar
    21    26    29    1
    22    29    30    1
    23    30    31    1
    24    26    27   ar
    25    27    28   ar
    26     6     7    1
    27     7     8    1
    28    19    20    1
    29    20    21    1
    30    21    19    1
    31    14     9    1
    32     8     3    1
    33    28    24   ar
    34    31    29    1
    35    15    18    1
@<TRIPOS>MOLECULE
*****
 31 35 0 0 0
SMALL
GASTEIGER

@<TRIPOS>ATOM
      1 C         142.0377  139.4739  165.5680 C.2     1  UNL1        0.2257
      2 O         143.1691  139.1638  166.5028 O.2     1  UNL1       -0.2749
      3 N         142.3101  140.1610  164.2628 N.am    1  UNL1       -0.2760
      4 C         141.1786  140.4711  163.3280 C.3     1  UNL1        0.1149
      5 C         141.4510  141.1582  162.0227 C.3     1  UNL1        0.1141
      6 N         142.8549  141.5353  161.6523 N.pl3   1  UNL1       -0.2847
      7 C         143.9862  141.2252  162.5870 C.3     1  UNL1        0.1141
      8 C         143.7139  140.5380  163.8923 C.3     1  UNL1        0.1149
      9 C         139.9268  139.8287  167.0406 C.3     1  UNL1        0.0851
     10 C         138.5231  139.4518  167.4111 C.3     1  UNL1        0.0096
     11 C         137.8264  138.3430  166.6795 C.3     1  UNL1        0.0005
     12 C         138.5335  137.6112  165.5775 C.3     1  UNL1        0.0005
     13 C         139.9372  137.9881  165.2070 C.3     1  UNL1        0.0096
     14 C         140.6339  139.0969  165.9385 C.3     1  UNL1        0.0853
     15 N         141.5497  140.6204  168.9086 N.am    1  UNL1       -0.2959
     16 C         140.6236  140.9375  167.7721 C.2     1  UNL1        0.2231
     17 O         140.3942  142.3635  167.3671 O.2     1  UNL1       -0.2751
     18 H         141.7002  139.6845  169.1745 H       1  UNL1        0.1502
     19 C         142.2465  141.7292  169.6402 C.3     1  UNL1        0.1364
     20 C         143.2638  142.7825  169.9650 C.3     1  UNL1        0.0353
     21 C         143.4116  141.9546  168.7228 C.3     1  UNL1        0.0353
     22 N         140.4000  142.0483  171.9831 N.1     1  UNL1       -0.1943
     23 C         141.3232  141.8887  170.8116 C.1     1  UNL1        0.0896
     24 C         143.1272  142.2224  160.3470 C.ar    1  UNL1        0.1628
     25 N         142.2522  143.2496  159.6919 N.ar    1  UNL1       -0.2284
     26 C         142.9066  143.6650  158.4077 C.ar    1  UNL1        0.0670
     27 C         144.1861  142.8945  158.2691 C.ar    1  UNL1        0.0528
     28 S         144.3225  142.0030  159.4677 S.2     1  UNL1       -0.0513
     29 C         142.3748  144.6737  157.4332 C.3     1  UNL1        0.0409
     30 C         141.9350  145.0321  156.0447 C.3     1  UNL1        0.0063
     31 C         141.8937  146.0626  157.1340 C.3     1  UNL1        0.0063
@<TRIPOS>BOND
     1    22    23    3
     2    23    19    1
     3    19    15    1
     4    15    16   am
     5    16    17    2
     6     9    16    1
     7     9    10    1
     8    10    11    1
     9    11    12    1
    10    12    13    1
    11    13    14    1
    12    14     1    1
    13     1     2    2
    14     1     3   am
    15     3     4    1
    16     4     5    1
    17     5     6    1
    18     6    24    1
    19    24    25   ar
    20    25    26   ar
    21    26    29    1
    22    29    30    1
    23    30    31    1
    24    26    27   ar
    25    27    28   ar
    26     6     7    1
    27     7     8    1
    28    19    20    1
    29    20    21    1
    30    21    19    1
    31    14     9    1
    32     8     3    1
    33    28    24   ar
    34    31    29    1
    35    15    18    1
@<TRIPOS>MOLECULE
*****
 31 35 0 0 0
SMALL
GASTEIGER

@<TRIPOS>ATOM
      1 C         142.2857  139.2410  165.4767 C.2     1  UNL1        0.2257
      2 O         143.3302  139.0515  166.5364 O.2     1  UNL1       -0.2749
      3 N         142.6846  139.6902  164.1022 N.am    1  UNL1       -0.2760
      4 C         141.6400  139.8798  163.0425 C.3     1  UNL1        0.1149
      5 C         142.0389  140.3290  161.6680 C.3     1  UNL1        0.1141
      6 N         143.4824  140.5887  161.3533 N.pl3   1  UNL1       -0.2847
      7 C         144.5269  140.3991  162.4131 C.3     1  UNL1        0.1141
      8 C         144.1280  139.9499  163.7875 C.3     1  UNL1        0.1149
      9 C         140.1273  139.8377  166.7941 C.3     1  UNL1        0.0851
     10 C         138.6839  139.5781  167.1088 C.3     1  UNL1        0.0096
     11 C         137.9553  138.4621  166.4207 C.3     1  UNL1        0.0005
     12 C         138.6701  137.6057  165.4179 C.3     1  UNL1        0.0005
     13 C         140.1136  137.8653  165.1032 C.3     1  UNL1        0.0096
     14 C         140.8422  138.9813  165.7913 C.3     1  UNL1        0.0853
     15 N         141.1947  140.8424  168.9393 N.am    1  UNL1       -0.2959
     16 C         140.8560  140.9538  167.4823 C.2     1  UNL1        0.2231
     17 O         141.2460  142.1813  166.7133 O.2     1  UNL1       -0.2751
     18 H         140.9387  140.0368  169.4439 H       1  UNL1        0.1502
     19 C         141.9234  141.9585  169.6274 C.3     1  UNL1        0.1364
     20 C         143.0558  142.8102  170.1195 C.3     1  UNL1        0.0353
     21 C         143.3391  141.5849  169.3019 C.3     1  UNL1        0.0353
     22 N         139.5978  143.4808  170.7563 N.1     1  UNL1       -0.1943
     23 C         140.7606  142.7197  170.1918 C.1     1  UNL1        0.0896
     24 C         143.8813  141.0379  159.9789 C.ar    1  UNL1        0.1628
     25 N         144.1451  140.1463  158.8018 N.ar    1  UNL1       -0.2284
     26 C         144.5133  141.0149  157.6357 C.ar    1  UNL1        0.0670
     27 C         144.4771  142.4434  158.0920 C.ar    1  UNL1        0.0528
     28 S         144.0865  142.4575  159.5402 S.2     1  UNL1       -0.0513
     29 C         144.8574  140.5387  156.2555 C.3     1  UNL1        0.0409
     30 C         145.2829  139.4381  155.3295 C.3     1  UNL1        0.0063
     31 C         145.0276  140.8147  154.7910 C.3     1  UNL1        0.0063
@<TRIPOS>BOND
     1    22    23    3
     2    23    19    1
     3    19    15    1
     4    15    16   am
     5    16    17    2
     6     9    16    1
     7     9    10    1
     8    10    11    1
     9    11    12    1
    10    12    13    1
    11    13    14    1
    12    14     1    1
    13     1     2    2
    14     1     3   am
    15     3     4    1
    16     4     5    1
    17     5     6    1
    18     6    24    1
    19    24    25   ar
    20    25    26   ar
    21    26    29    1
    22    29    30    1
    23    30    31    1
    24    26    27   ar
    25    27    28   ar
    26     6     7    1
    27     7     8    1
    28    19    20    1
    29    20    21    1
    30    21    19    1
    31    14     9    1
    32     8     3    1
    33    28    24   ar
    34    31    29    1
    35    15    18    1
@<TRIPOS>MOLECULE
*****
 31 35 0 0 0
SMALL
GASTEIGER

@<TRIPOS>ATOM
      1 C         143.9850  140.9036  163.2400 C.2     1  UNL1        0.2257
      2 O         144.9371  140.2780  164.2156 O.2     1  UNL1       -0.2749
      3 N         143.5515  140.1427  162.0221 N.am    1  UNL1       -0.2760
      4 C         142.5993  140.7684  161.0464 C.3     1  UNL1        0.1149
      5 C         142.1659  140.0075  159.8285 C.3     1  UNL1        0.1141
      6 N         142.6846  138.6210  159.5863 N.pl3   1  UNL1       -0.2847
      7 C         143.6368  137.9955  160.5620 C.3     1  UNL1        0.1141
      8 C         144.0702  138.7563  161.7799 C.3     1  UNL1        0.1149
      9 C         142.1742  142.4896  164.2177 C.3     1  UNL1        0.0851
     10 C         141.6555  143.8760  164.4599 C.3     1  UNL1        0.0096
     11 C         142.4286  145.0629  163.9665 C.3     1  UNL1        0.0005
     12 C         143.7206  144.8634  163.2310 C.3     1  UNL1        0.0005
     13 C         144.2394  143.4770  162.9888 C.3     1  UNL1        0.0096
     14 C         143.4662  142.2901  163.4821 C.3     1  UNL1        0.0853
     15 N         140.3195  140.7057  163.8603 N.am    1  UNL1       -0.2959
     16 C         141.4011  141.3026  164.7110 C.2     1  UNL1        0.2231
     17 O         141.7095  140.7126  166.0552 O.2     1  UNL1       -0.2751
     18 H         140.1171  141.0929  162.9780 H       1  UNL1        0.1502
     19 C         139.5463  139.5187  164.3536 C.3     1  UNL1        0.1364
     20 C         138.5381  138.7109  165.1158 C.3     1  UNL1        0.0353
     21 C         138.6009  140.1985  165.2991 C.3     1  UNL1        0.0353
     22 N         140.9003  137.3349  162.8052 N.1     1  UNL1       -0.1943
     23 C         140.2233  138.4269  163.5794 C.1     1  UNL1        0.0896
     24 C         142.2512  137.8602  158.3684 C.ar    1  UNL1        0.1628
     25 N         142.9961  136.7289  157.7241 N.ar    1  UNL1       -0.2284
     26 C         142.2020  136.2666  156.5385 C.ar    1  UNL1        0.0670
     27 C         140.9663  137.1122  156.4500 C.ar    1  UNL1        0.0528
     28 S         140.9967  138.0971  157.5810 S.2     1  UNL1       -0.0513
     29 C         142.5778  135.1540  155.6052 C.3     1  UNL1        0.0409
     30 C         142.5960  134.5663  154.2253 C.3     1  UNL1        0.0063
     31 C         143.2104  133.8146  155.3688 C.3     1  UNL1        0.0063
@<TRIPOS>BOND
     1    22    23    3
     2    23    19    1
     3    19    15    1
     4    15    16   am
     5    16    17    2
     6     9    16    1
     7     9    10    1
     8    10    11    1
     9    11    12    1
    10    12    13    1
    11    13    14    1
    12    14     1    1
    13     1     2    2
    14     1     3   am
    15     3     4    1
    16     4     5    1
    17     5     6    1
    18     6    24    1
    19    24    25   ar
    20    25    26   ar
    21    26    29    1
    22    29    30    1
    23    30    31    1
    24    26    27   ar
    25    27    28   ar
    26     6     7    1
    27     7     8    1
    28    19    20    1
    29    20    21    1
    30    21    19    1
    31    14     9    1
    32     8     3    1
    33    28    24   ar
    34    31    29    1
    35    15    18    1
@<TRIPOS>MOLECULE
*****
 31 35 0 0 0
SMALL
GASTEIGER

@<TRIPOS>ATOM
      1 C         142.2030  143.0441  164.2343 C.2     1  UNL1        0.2257
      2 O         143.1082  143.1744  165.4232 O.2     1  UNL1       -0.2749
      3 N         142.7778  142.7313  162.8846 N.am    1  UNL1       -0.2760
      4 C         141.8725  142.6010  161.6957 C.3     1  UNL1        0.1149
      5 C         142.4474  142.2881  160.3460 C.3     1  UNL1        0.1141
      6 N         143.9276  142.1057  160.1852 N.pl3   1  UNL1       -0.2847
      7 C         144.8328  142.2360  161.3741 C.3     1  UNL1        0.1141
      8 C         144.2580  142.5488  162.7238 C.3     1  UNL1        0.1149
      9 C         139.8444  142.0385  164.6540 C.3     1  UNL1        0.0851
     10 C         138.3643  142.2210  164.8147 C.3     1  UNL1        0.0096
     11 C         137.7625  143.5914  164.7166 C.3     1  UNL1        0.0005
     12 C         138.6409  144.7795  164.4577 C.3     1  UNL1        0.0005
     13 C         140.1210  144.5970  164.2970 C.3     1  UNL1        0.0096
     14 C         140.7228  143.2266  164.3951 C.3     1  UNL1        0.0853
     15 N         140.3722  139.7309  163.5832 N.am    1  UNL1       -0.2959
     16 C         140.4462  140.6680  164.7521 C.2     1  UNL1        0.2231
     17 O         141.1221  140.2347  166.0191 O.2     1  UNL1       -0.2751
     18 H         139.9285  140.0154  162.7516 H       1  UNL1        0.1502
     19 C         140.9740  138.3604  163.6813 C.3     1  UNL1        0.1364
     20 C         141.1001  136.8936  163.9685 C.3     1  UNL1        0.0353
     21 C         139.8131  137.6070  164.2598 C.3     1  UNL1        0.0353
     22 N         143.7138  138.9155  162.5926 N.1     1  UNL1       -0.1943
     23 C         142.3438  138.6380  163.1369 C.1     1  UNL1        0.0896
     24 C         144.5025  141.7928  158.8355 C.ar    1  UNL1        0.1628
     25 N         145.6451  142.5072  158.1768 N.ar    1  UNL1       -0.2284
     26 C         145.8845  141.8666  156.8417 C.ar    1  UNL1        0.0670
     27 C         144.8897  140.7563  156.6754 C.ar    1  UNL1        0.0528
     28 S         144.0356  140.7108  157.9076 S.2     1  UNL1       -0.0513
     29 C         146.9343  142.2662  155.8476 C.3     1  UNL1        0.0409
     30 C         148.2768  142.0448  155.2163 C.3     1  UNL1        0.0063
     31 C         147.4099  143.1797  154.7571 C.3     1  UNL1        0.0063
@<TRIPOS>BOND
     1    22    23    3
     2    23    19    1
     3    19    15    1
     4    15    16   am
     5    16    17    2
     6     9    16    1
     7     9    10    1
     8    10    11    1
     9    11    12    1
    10    12    13    1
    11    13    14    1
    12    14     1    1
    13     1     2    2
    14     1     3   am
    15     3     4    1
    16     4     5    1
    17     5     6    1
    18     6    24    1
    19    24    25   ar
    20    25    26   ar
    21    26    29    1
    22    29    30    1
    23    30    31    1
    24    26    27   ar
    25    27    28   ar
    26     6     7    1
    27     7     8    1
    28    19    20    1
    29    20    21    1
    30    21    19    1
    31    14     9    1
    32     8     3    1
    33    28    24   ar
    34    31    29    1
    35    15    18    1
@<TRIPOS>MOLECULE
*****
 31 35 0 0 0
SMALL
GASTEIGER

@<TRIPOS>ATOM
      1 C         138.7036  140.3188  164.1762 C.2     1  UNL1        0.2257
      2 O         138.2374  139.3090  165.1826 O.2     1  UNL1       -0.2749
      3 N         139.0911  139.8781  162.7957 N.am    1  UNL1       -0.2760
      4 C         139.5573  140.8879  161.7893 C.3     1  UNL1        0.1149
      5 C         139.9447  140.4473  160.4088 C.3     1  UNL1        0.1141
      6 N         139.8660  138.9967  160.0348 N.pl3   1  UNL1       -0.2847
      7 C         139.3999  137.9869  161.0413 C.3     1  UNL1        0.1141
      8 C         139.0124  138.4276  162.4217 C.3     1  UNL1        0.1149
      9 C         140.0358  142.3185  165.1642 C.3     1  UNL1        0.0851
     10 C         140.1146  143.7690  165.5382 C.3     1  UNL1        0.0096
     11 C         138.9398  144.6702  165.2981 C.3     1  UNL1        0.0005
     12 C         137.6863  144.1210  164.6840 C.3     1  UNL1        0.0005
     13 C         137.6076  142.6706  164.3101 C.3     1  UNL1        0.0096
     14 C         138.7823  141.7693  164.5502 C.3     1  UNL1        0.0853
     15 N         141.0444  140.1698  166.2205 N.am    1  UNL1       -0.2959
     16 C         141.2106  141.4172  165.4043 C.2     1  UNL1        0.2231
     17 O         142.5516  141.7634  164.8282 O.2     1  UNL1       -0.2751
     18 H         140.1642  139.9426  166.5987 H       1  UNL1        0.1502
     19 C         142.2192  139.2685  166.4606 C.3     1  UNL1        0.1364
     20 C         143.2608  138.2162  166.2203 C.3     1  UNL1        0.0353
     21 C         142.2438  138.5208  165.1605 C.3     1  UNL1        0.0353
     22 N         142.9856  140.1379  169.2278 N.1     1  UNL1       -0.1943
     23 C         142.6024  139.7032  167.8441 C.1     1  UNL1        0.0896
     24 C         140.2535  138.5560  158.6544 C.ar    1  UNL1        0.1628
     25 N         139.3147  138.3163  157.5093 N.ar    1  UNL1       -0.2284
     26 C         140.1288  137.8898  156.3238 C.ar    1  UNL1        0.0670
     27 C         141.5708  137.8659  156.7362 C.ar    1  UNL1        0.0528
     28 S         141.6478  138.2776  158.1766 S.2     1  UNL1       -0.0513
     29 C         139.5946  137.5473  154.9647 C.3     1  UNL1        0.0409
     30 C         138.4313  137.3195  154.0456 C.3     1  UNL1        0.0063
     31 C         139.8330  137.1819  153.5295 C.3     1  UNL1        0.0063
@<TRIPOS>BOND
     1    22    23    3
     2    23    19    1
     3    19    15    1
     4    15    16   am
     5    16    17    2
     6     9    16    1
     7     9    10    1
     8    10    11    1
     9    11    12    1
    10    12    13    1
    11    13    14    1
    12    14     1    1
    13     1     2    2
    14     1     3   am
    15     3     4    1
    16     4     5    1
    17     5     6    1
    18     6    24    1
    19    24    25   ar
    20    25    26   ar
    21    26    29    1
    22    29    30    1
    23    30    31    1
    24    26    27   ar
    25    27    28   ar
    26     6     7    1
    27     7     8    1
    28    19    20    1
    29    20    21    1
    30    21    19    1
    31    14     9    1
    32     8     3    1
    33    28    24   ar
    34    31    29    1
    35    15    18    1
@<TRIPOS>MOLECULE
*****
 31 35 0 0 0
SMALL
GASTEIGER

@<TRIPOS>ATOM
      1 C         138.6081  140.4095  163.9626 C.2     1  UNL1        0.2257
      2 O         137.9817  139.3992  164.8774 O.2     1  UNL1       -0.2749
      3 N         139.1208  139.9874  162.6176 N.am    1  UNL1       -0.2760
      4 C         139.7472  140.9978  161.7028 C.3     1  UNL1        0.1149
      5 C         140.2599  140.5757  160.3579 C.3     1  UNL1        0.1141
      6 N         140.1463  139.1431  159.9278 N.pl3   1  UNL1       -0.2847
      7 C         139.5200  138.1328  160.8425 C.3     1  UNL1        0.1141
      8 C         139.0072  138.5550  162.1875 C.3     1  UNL1        0.1149
      9 C         139.9745  142.3278  165.0595 C.3     1  UNL1        0.0851
     10 C         140.0881  143.7603  165.4897 C.3     1  UNL1        0.0096
     11 C         138.9490  144.7070  165.2530 C.3     1  UNL1        0.0005
     12 C         137.6962  144.2213  164.5862 C.3     1  UNL1        0.0005
     13 C         137.5826  142.7888  164.1561 C.3     1  UNL1        0.0096
     14 C         138.7217  141.8421  164.3927 C.3     1  UNL1        0.0853
     15 N         140.9200  140.1788  166.1720 N.am    1  UNL1       -0.2959
     16 C         141.1136  141.3810  165.2962 C.2     1  UNL1        0.2231
     17 O         142.4463  141.6365  164.6570 O.2     1  UNL1       -0.2751
     18 H         140.0453  140.0111  166.5915 H       1  UNL1        0.1502
     19 C         142.0592  139.2319  166.4087 C.3     1  UNL1        0.1364
     20 C         143.2746  138.6185  167.0382 C.3     1  UNL1        0.0353
     21 C         142.6745  139.8631  167.6223 C.3     1  UNL1        0.0353
     22 N         141.6196  137.3123  164.1455 N.1     1  UNL1       -0.1943
     23 C         141.8393  138.2721  165.2771 C.1     1  UNL1        0.0896
     24 C         140.6591  138.7210  158.5828 C.ar    1  UNL1        0.1628
     25 N         141.9540  138.0127  158.3154 N.ar    1  UNL1       -0.2284
     26 C         142.0622  137.7870  156.8365 C.ar    1  UNL1        0.0670
     27 C         140.8341  138.3558  156.1897 C.ar    1  UNL1        0.0528
     28 S         139.9670  138.9330  157.2690 S.2     1  UNL1       -0.0513
     29 C         143.1989  137.1112  156.1286 C.3     1  UNL1        0.0409
     30 C         143.8950  135.8563  155.6917 C.3     1  UNL1        0.0063
     31 C         144.4716  137.1955  155.3393 C.3     1  UNL1        0.0063
@<TRIPOS>BOND
     1    22    23    3
     2    23    19    1
     3    19    15    1
     4    15    16   am
     5    16    17    2
     6     9    16    1
     7     9    10    1
     8    10    11    1
     9    11    12    1
    10    12    13    1
    11    13    14    1
    12    14     1    1
    13     1     2    2
    14     1     3   am
    15     3     4    1
    16     4     5    1
    17     5     6    1
    18     6    24    1
    19    24    25   ar
    20    25    26   ar
    21    26    29    1
    22    29    30    1
    23    30    31    1
    24    26    27   ar
    25    27    28   ar
    26     6     7    1
    27     7     8    1
    28    19    20    1
    29    20    21    1
    30    21    19    1
    31    14     9    1
    32     8     3    1
    33    28    24   ar
    34    31    29    1
    35    15    18    1
@<TRIPOS>MOLECULE
*****
 31 35 0 0 0
SMALL
GASTEIGER

@<TRIPOS>ATOM
      1 C         138.3001  142.3674  162.1850 C.2     1  UNL1        0.2257
      2 O         137.3635  141.1985  162.1061 O.2     1  UNL1       -0.2749
      3 N         138.8323  142.9882  160.9274 N.am    1  UNL1       -0.2760
      4 C         139.7690  144.1572  161.0063 C.3     1  UNL1        0.1149
      5 C         140.3011  144.7781  159.7488 C.3     1  UNL1        0.1141
      6 N         139.8966  144.2299  158.4124 N.pl3   1  UNL1       -0.2847
      7 C         138.9600  143.0610  158.3335 C.3     1  UNL1        0.1141
      8 C         138.4278  142.4401  159.5911 C.3     1  UNL1        0.1149
      9 C         139.7175  142.1881  164.3550 C.3     1  UNL1        0.0851
     10 C         140.1220  142.7362  165.6913 C.3     1  UNL1        0.0096
     11 C         139.5137  144.0117  166.1941 C.3     1  UNL1        0.0005
     12 C         138.5008  144.7392  165.3605 C.3     1  UNL1        0.0005
     13 C         138.0963  144.1911  164.0242 C.3     1  UNL1        0.0096
     14 C         138.7046  142.9156  163.5214 C.3     1  UNL1        0.0853
     15 N         139.5879  139.6162  164.0104 N.am    1  UNL1       -0.2959
     16 C         140.3259  140.9125  163.8521 C.2     1  UNL1        0.2231
     17 O         141.6722  140.9332  163.1910 O.2     1  UNL1       -0.2751
     18 H         138.7043  139.6026  164.4443 H       1  UNL1        0.1502
     19 C         140.1963  138.3406  163.5076 C.3     1  UNL1        0.1364
     20 C         141.0045  137.0771  163.4856 C.3     1  UNL1        0.0353
     21 C         140.9832  137.9326  164.7177 C.3     1  UNL1        0.0353
     22 N         139.0449  138.2706  160.7382 N.1     1  UNL1       -0.1943
     23 C         139.6205  138.3056  162.1230 C.1     1  UNL1        0.0896
     24 C         140.4287  144.8508  157.1549 C.ar    1  UNL1        0.1628
     25 N         139.8468  146.0351  156.4416 N.ar    1  UNL1       -0.2284
     26 C         140.6947  146.3126  155.2357 C.ar    1  UNL1        0.0670
     27 C         141.8006  145.2997  155.2037 C.ar    1  UNL1        0.0528
     28 S         141.6362  144.3963  156.3898 S.2     1  UNL1       -0.0513
     29 C         140.4751  147.4102  154.2372 C.3     1  UNL1        0.0409
     30 C         139.8296  148.7094  153.8558 C.3     1  UNL1        0.0063
     31 C         140.7404  148.0121  152.8891 C.3     1  UNL1        0.0063
@<TRIPOS>BOND
     1    22    23    3
     2    23    19    1
     3    19    15    1
     4    15    16   am
     5    16    17    2
     6     9    16    1
     7     9    10    1
     8    10    11    1
     9    11    12    1
    10    12    13    1
    11    13    14    1
    12    14     1    1
    13     1     2    2
    14     1     3   am
    15     3     4    1
    16     4     5    1
    17     5     6    1
    18     6    24    1
    19    24    25   ar
    20    25    26   ar
    21    26    29    1
    22    29    30    1
    23    30    31    1
    24    26    27   ar
    25    27    28   ar
    26     6     7    1
    27     7     8    1
    28    19    20    1
    29    20    21    1
    30    21    19    1
    31    14     9    1
    32     8     3    1
    33    28    24   ar
    34    31    29    1
    35    15    18    1
