@<TRIPOS>MOLECULE
*****
 39 42 0 0 0
SMALL
GASTEIGER

@<TRIPOS>ATOM
      1 C         139.3931  138.2210  162.8876 C.ar    1  UNL1        0.1534
      2 C         139.3079  137.9741  161.4105 C.ar    1  UNL1        0.0591
      3 C         139.0004  139.1074  160.4772 C.ar    1  UNL1        0.1072
      4 N         138.9152  138.8605  159.0001 N.ar    1  UNL1       -0.1477
      5 N         138.6078  139.9938  158.0667 N.ar    1  UNL1       -0.1421
      6 C         138.3856  141.3741  158.6106 C.ar    1  UNL1        0.1690
      7 C         138.4708  141.6209  160.0876 C.ar    1  UNL1        0.0740
      8 C         138.7783  140.4876  161.0209 C.ar    1  UNL1        0.0359
      9 C         138.8635  140.7345  162.4980 C.ar    1  UNL1        0.0204
     10 C         139.1709  139.6012  163.4313 C.ar    1  UNL1        0.0825
     11 N         139.2562  139.8481  164.9084 N.pl3   1  UNL1       -0.3017
     12 C         140.2642  140.8181  165.4497 C.3     1  UNL1        0.1124
     13 C         140.3494  141.0650  166.9268 C.3     1  UNL1        0.1149
     14 N         139.4267  140.3419  167.8626 N.am    1  UNL1       -0.2741
     15 C         139.5119  140.5888  169.3397 C.2     1  UNL1        0.2526
     16 O         138.5892  139.8658  170.2754 O.2     1  UNL1       -0.2723
     17 C         138.4187  139.3719  167.3213 C.3     1  UNL1        0.1149
     18 C         138.3334  139.1250  165.8442 C.3     1  UNL1        0.1124
     19 C         140.5199  141.5589  169.8810 C.3     1  UNL1        0.1869
     20 C         140.1658  143.0100  170.0183 C.3     1  UNL1        0.0417
     21 O         141.8820  141.0778  170.2849 O.3     1  UNL1       -0.3758
     22 H         142.4058  141.8264  170.6109 H       1  UNL1        0.2110
     23 C         138.0781  142.5074  157.6772 C.2     1  UNL1        0.2635
     24 N         136.8376  142.4697  156.8348 N.am    1  UNL1       -0.3240
     25 O         139.0112  143.6783  157.5864 O.2     1  UNL1       -0.2686
     26 H         136.2252  141.7012  156.8944 H       1  UNL1        0.1453
     27 H         136.6358  143.2136  156.2222 H       1  UNL1        0.1453
     28 C         141.0938  136.9051  164.3456 C.3     1  UNL1        0.2525
     29 O         139.7006  137.0877  163.8209 O.3     1  UNL1       -0.4701
     30 N         138.2486  143.0011  160.6314 N.pl3   1  UNL1       -0.3094
     31 H         137.4019  143.4704  160.4521 H       1  UNL1        0.1523
     32 C         139.3165  143.6663  161.4483 C.ar    1  UNL1        0.0761
     33 C         140.7404  143.6505  160.9769 C.ar    1  UNL1        0.0166
     34 C         141.8082  144.3157  161.7938 C.ar    1  UNL1       -0.0028
     35 C         141.4522  144.9967  163.0820 C.ar    1  UNL1       -0.0195
     36 C         142.5200  145.6619  163.8988 C.3     1  UNL1        0.0311
     37 C         140.0282  145.0125  163.5533 C.ar    1  UNL1        0.0267
     38 C         138.9604  144.3473  162.7364 C.ar    1  UNL1        0.1531
     39 F         137.5364  144.3631  163.2078 F       1  UNL1       -0.2029
@<TRIPOS>BOND
     1    28    29    1
     2    29     1    1
     3     1     2   ar
     4     2     3   ar
     5     3     4   ar
     6     4     5   ar
     7     5     6   ar
     8     6    23    1
     9    23    24   am
    10    23    25    2
    11     6     7   ar
    12     7    30    1
    13    30    32    1
    14    32    33   ar
    15    33    34   ar
    16    34    35   ar
    17    35    36    1
    18    35    37   ar
    19    37    38   ar
    20    38    39    1
    21     7     8   ar
    22     8     9   ar
    23     9    10   ar
    24    10    11    1
    25    11    12    1
    26    12    13    1
    27    13    14    1
    28    14    15   am
    29    15    16    2
    30    15    19    1
    31    19    20    1
    32    19    21    1
    33    14    17    1
    34    17    18    1
    35    10     1   ar
    36    18    11    1
    37     8     3   ar
    38    38    32   ar
    39    24    26    1
    40    24    27    1
    41    30    31    1
    42    21    22    1
@<TRIPOS>MOLECULE
*****
 39 42 0 0 0
SMALL
GASTEIGER

@<TRIPOS>ATOM
      1 C         138.6425  140.8016  162.4768 C.ar    1  UNL1        0.1534
      2 C         138.1584  141.2160  161.1190 C.ar    1  UNL1        0.0591
      3 C         138.8426  142.3325  160.3873 C.ar    1  UNL1        0.1072
      4 N         138.3584  142.7470  159.0294 N.ar    1  UNL1       -0.1477
      5 N         139.0425  143.8635  158.2977 N.ar    1  UNL1       -0.1421
      6 C         140.2109  144.5655  158.9240 C.ar    1  UNL1        0.1690
      7 C         140.6950  144.1511  160.2818 C.ar    1  UNL1        0.0740
      8 C         140.0109  143.0346  161.0135 C.ar    1  UNL1        0.0359
      9 C         140.4950  142.6201  162.3714 C.ar    1  UNL1        0.0204
     10 C         139.8108  141.5036  163.1030 C.ar    1  UNL1        0.0825
     11 N         140.2950  141.0892  164.4609 N.pl3   1  UNL1       -0.3017
     12 C         139.5994  141.5923  165.6910 C.3     1  UNL1        0.1124
     13 C         140.0836  141.1779  167.0489 C.3     1  UNL1        0.1149
     14 N         141.2634  140.2604  167.1767 N.am    1  UNL1       -0.2741
     15 C         141.7475  139.8460  168.5346 C.2     1  UNL1        0.2526
     16 O         142.9272  138.9285  168.6624 O.2     1  UNL1       -0.2723
     17 C         141.9589  139.7573  165.9467 C.3     1  UNL1        0.1149
     18 C         141.4747  140.1717  164.5888 C.3     1  UNL1        0.1124
     19 C         141.0519  140.3491  169.7647 C.3     1  UNL1        0.1869
     20 C         141.5979  141.5353  170.5028 C.3     1  UNL1        0.0417
     21 O         139.8104  139.6661  170.2565 O.3     1  UNL1       -0.3758
     22 H         139.4901  140.1135  171.0554 H       1  UNL1        0.2110
     23 C         140.8950  145.6820  158.1923 C.2     1  UNL1        0.2635
     24 N         140.0930  146.6285  157.3490 N.am    1  UNL1       -0.3240
     25 O         142.3812  145.8521  158.3039 O.2     1  UNL1       -0.2686
     26 H         139.1176  146.5169  157.2758 H       1  UNL1        0.1453
     27 H         140.5420  147.3613  156.8688 H       1  UNL1        0.1453
     28 C         138.4597  138.2783  163.0682 C.3     1  UNL1        0.2525
     29 O         137.9584  139.6851  163.2085 O.3     1  UNL1       -0.4701
     30 N         141.8633  144.8531  160.9080 N.pl3   1  UNL1       -0.3094
     31 H         141.9433  145.8321  160.8404 H       1  UNL1        0.1523
     32 C         142.9098  144.0637  161.6372 C.ar    1  UNL1        0.0761
     33 C         143.6592  142.9758  160.9267 C.ar    1  UNL1        0.0166
     34 C         144.7057  142.1864  161.6558 C.ar    1  UNL1       -0.0028
     35 C         145.0028  142.4849  163.0956 C.ar    1  UNL1       -0.0195
     36 C         146.0493  141.6954  163.8247 C.3     1  UNL1        0.0311
     37 C         144.2534  143.5728  163.8061 C.ar    1  UNL1        0.0267
     38 C         143.2069  144.3622  163.0769 C.ar    1  UNL1        0.1531
     39 F         142.4575  145.4501  163.7874 F       1  UNL1       -0.2029
@<TRIPOS>BOND
     1    28    29    1
     2    29     1    1
     3     1     2   ar
     4     2     3   ar
     5     3     4   ar
     6     4     5   ar
     7     5     6   ar
     8     6    23    1
     9    23    24   am
    10    23    25    2
    11     6     7   ar
    12     7    30    1
    13    30    32    1
    14    32    33   ar
    15    33    34   ar
    16    34    35   ar
    17    35    36    1
    18    35    37   ar
    19    37    38   ar
    20    38    39    1
    21     7     8   ar
    22     8     9   ar
    23     9    10   ar
    24    10    11    1
    25    11    12    1
    26    12    13    1
    27    13    14    1
    28    14    15   am
    29    15    16    2
    30    15    19    1
    31    19    20    1
    32    19    21    1
    33    14    17    1
    34    17    18    1
    35    10     1   ar
    36    18    11    1
    37     8     3   ar
    38    38    32   ar
    39    24    26    1
    40    24    27    1
    41    30    31    1
    42    21    22    1
@<TRIPOS>MOLECULE
*****
 39 42 0 0 0
SMALL
GASTEIGER

@<TRIPOS>ATOM
      1 C         144.0691  139.8607  162.9045 C.ar    1  UNL1        0.1534
      2 C         144.3047  139.5175  161.4635 C.ar    1  UNL1        0.0591
      3 C         143.1402  139.2643  160.5527 C.ar    1  UNL1        0.1072
      4 N         143.3759  138.9211  159.1116 N.ar    1  UNL1       -0.1477
      5 N         142.2113  138.6679  158.2007 N.ar    1  UNL1       -0.1421
      6 C         140.8110  138.7580  158.7309 C.ar    1  UNL1        0.1690
      7 C         140.5753  139.1013  160.1720 C.ar    1  UNL1        0.0740
      8 C         141.7399  139.3544  161.0828 C.ar    1  UNL1        0.0359
      9 C         141.5042  139.6976  162.5238 C.ar    1  UNL1        0.0204
     10 C         142.6688  139.9508  163.4347 C.ar    1  UNL1        0.0825
     11 N         142.4331  140.2940  164.8758 N.pl3   1  UNL1       -0.3017
     12 C         142.5036  141.7226  165.3277 C.3     1  UNL1        0.1124
     13 C         142.2679  142.0659  166.7687 C.3     1  UNL1        0.1149
     14 N         141.9616  140.9806  167.7579 N.am    1  UNL1       -0.2741
     15 C         141.7259  141.3238  169.1989 C.2     1  UNL1        0.2526
     16 O         141.4196  140.2386  170.1880 O.2     1  UNL1       -0.2723
     17 C         141.8911  139.5520  167.3060 C.3     1  UNL1        0.1149
     18 C         142.1268  139.2088  165.8649 C.3     1  UNL1        0.1124
     19 C         141.7965  142.7524  169.6508 C.3     1  UNL1        0.1869
     20 C         140.5641  143.6072  169.6305 C.3     1  UNL1        0.0417
     21 O         143.0994  143.3262  170.1231 O.3     1  UNL1       -0.3758
     22 H         142.9713  144.2536  170.3768 H       1  UNL1        0.2110
     23 C         139.6464  138.5049  157.8201 C.2     1  UNL1        0.2635
     24 N         139.5994  137.2547  156.9925 N.am    1  UNL1       -0.3240
     25 O         138.5288  139.5019  157.7368 O.2     1  UNL1       -0.2686
     26 H         140.3330  136.6003  157.0471 H       1  UNL1        0.1453
     27 H         138.8351  137.0885  156.3946 H       1  UNL1        0.1453
     28 C         145.8834  141.4655  163.8441 C.3     1  UNL1        0.2525
     29 O         145.2337  140.1138  163.8154 O.3     1  UNL1       -0.4701
     30 N         139.1751  139.1914  160.7021 N.pl3   1  UNL1       -0.3094
     31 H         138.5504  138.4416  160.5723 H       1  UNL1        0.1523
     32 C         138.7266  140.4238  161.4301 C.ar    1  UNL1        0.0761
     33 C         138.8830  141.7715  160.7904 C.ar    1  UNL1        0.0166
     34 C         138.4346  143.0039  161.5183 C.ar    1  UNL1       -0.0028
     35 C         137.8296  142.8887  162.8861 C.ar    1  UNL1       -0.0195
     36 C         137.3811  144.1212  163.6141 C.3     1  UNL1        0.0311
     37 C         137.6732  141.5411  163.5259 C.ar    1  UNL1        0.0267
     38 C         138.1217  140.3086  162.7979 C.ar    1  UNL1        0.1531
     39 F         137.9652  138.9609  163.4377 F       1  UNL1       -0.2029
@<TRIPOS>BOND
     1    28    29    1
     2    29     1    1
     3     1     2   ar
     4     2     3   ar
     5     3     4   ar
     6     4     5   ar
     7     5     6   ar
     8     6    23    1
     9    23    24   am
    10    23    25    2
    11     6     7   ar
    12     7    30    1
    13    30    32    1
    14    32    33   ar
    15    33    34   ar
    16    34    35   ar
    17    35    36    1
    18    35    37   ar
    19    37    38   ar
    20    38    39    1
    21     7     8   ar
    22     8     9   ar
    23     9    10   ar
    24    10    11    1
    25    11    12    1
    26    12    13    1
    27    13    14    1
    28    14    15   am
    29    15    16    2
    30    15    19    1
    31    19    20    1
    32    19    21    1
    33    14    17    1
    34    17    18    1
    35    10     1   ar
    36    18    11    1
    37     8     3   ar
    38    38    32   ar
    39    24    26    1
    40    24    27    1
    41    30    31    1
    42    21    22    1
@<TRIPOS>MOLECULE
*****
 39 42 0 0 0
SMALL
GASTEIGER

@<TRIPOS>ATOM
      1 C         137.9983  140.7207  162.1528 C.ar    1  UNL1        0.1534
      2 C         137.8082  140.5558  160.6741 C.ar    1  UNL1        0.0591
      3 C         138.8402  139.8316  159.8613 C.ar    1  UNL1        0.1072
      4 N         138.6499  139.6667  158.3826 N.ar    1  UNL1       -0.1477
      5 N         139.6819  138.9425  157.5698 N.ar    1  UNL1       -0.1421
      6 C         140.9041  138.3833  158.2358 C.ar    1  UNL1        0.1690
      7 C         141.0943  138.5482  159.7145 C.ar    1  UNL1        0.0740
      8 C         140.0623  139.2724  160.5273 C.ar    1  UNL1        0.0359
      9 C         140.2525  139.4373  162.0060 C.ar    1  UNL1        0.0204
     10 C         139.2205  140.1615  162.8187 C.ar    1  UNL1        0.0825
     11 N         139.4107  140.3264  164.2975 N.pl3   1  UNL1       -0.3017
     12 C         140.3195  141.3985  164.8218 C.3     1  UNL1        0.1124
     13 C         140.5098  141.5634  166.3005 C.3     1  UNL1        0.1149
     14 N         139.7912  140.6563  167.2550 N.am    1  UNL1       -0.2741
     15 C         139.9815  140.8213  168.7336 C.2     1  UNL1        0.2526
     16 O         139.2630  139.9142  169.6880 O.2     1  UNL1       -0.2723
     17 C         138.8824  139.5843  166.7307 C.3     1  UNL1        0.1149
     18 C         138.6922  139.4194  165.2519 C.3     1  UNL1        0.1124
     19 C         140.8903  141.8933  169.2579 C.3     1  UNL1        0.1869
     20 C         140.3285  143.2284  169.6476 C.3     1  UNL1        0.0417
     21 O         142.3608  141.6302  169.3926 O.3     1  UNL1       -0.3758
     22 H         142.7999  142.4208  169.7433 H       1  UNL1        0.2110
     23 C         141.9361  137.6591  157.4231 C.2     1  UNL1        0.2635
     24 N         141.5236  136.5431  156.5096 N.am    1  UNL1       -0.3240
     25 O         143.3805  138.0509  157.5238 O.2     1  UNL1       -0.2686
     26 H         140.5756  136.2859  156.4435 H       1  UNL1        0.1453
     27 H         142.2009  136.0678  155.9761 H       1  UNL1        0.1453
     28 C         137.2513  142.8236  163.4831 C.3     1  UNL1        0.2525
     29 O         136.9664  141.4449  162.9656 O.3     1  UNL1       -0.4701
     30 N         142.3165  137.9890  160.3805 N.pl3   1  UNL1       -0.3094
     31 H         142.5535  137.0413  160.2584 H       1  UNL1        0.1523
     32 C         143.1776  138.8737  161.2325 C.ar    1  UNL1        0.0761
     33 C         143.5600  138.4401  162.6166 C.ar    1  UNL1        0.0166
     34 C         144.4211  139.3247  163.4686 C.ar    1  UNL1       -0.0028
     35 C         144.8997  140.6431  162.9365 C.ar    1  UNL1       -0.0195
     36 C         145.7608  141.5277  163.7885 C.3     1  UNL1        0.0311
     37 C         144.5173  141.0766  161.5524 C.ar    1  UNL1        0.0267
     38 C         143.6562  140.1919  160.7004 C.ar    1  UNL1        0.1531
     39 F         143.2737  140.6255  159.3163 F       1  UNL1       -0.2029
@<TRIPOS>BOND
     1    28    29    1
     2    29     1    1
     3     1     2   ar
     4     2     3   ar
     5     3     4   ar
     6     4     5   ar
     7     5     6   ar
     8     6    23    1
     9    23    24   am
    10    23    25    2
    11     6     7   ar
    12     7    30    1
    13    30    32    1
    14    32    33   ar
    15    33    34   ar
    16    34    35   ar
    17    35    36    1
    18    35    37   ar
    19    37    38   ar
    20    38    39    1
    21     7     8   ar
    22     8     9   ar
    23     9    10   ar
    24    10    11    1
    25    11    12    1
    26    12    13    1
    27    13    14    1
    28    14    15   am
    29    15    16    2
    30    15    19    1
    31    19    20    1
    32    19    21    1
    33    14    17    1
    34    17    18    1
    35    10     1   ar
    36    18    11    1
    37     8     3   ar
    38    38    32   ar
    39    24    26    1
    40    24    27    1
    41    30    31    1
    42    21    22    1
@<TRIPOS>MOLECULE
*****
 39 42 0 0 0
SMALL
GASTEIGER

@<TRIPOS>ATOM
      1 C         139.0871  138.4238  164.0002 C.ar    1  UNL1        0.1534
      2 C         138.5746  138.2241  165.3957 C.ar    1  UNL1        0.0591
      3 C         138.9543  139.1891  166.4794 C.ar    1  UNL1        0.1072
      4 N         138.4418  138.9894  167.8749 N.ar    1  UNL1       -0.1477
      5 N         138.8215  139.9544  168.9587 N.ar    1  UNL1       -0.1421
      6 C         139.7139  141.1192  168.6469 C.ar    1  UNL1        0.1690
      7 C         140.2264  141.3189  167.2514 C.ar    1  UNL1        0.0740
      8 C         139.8466  140.3539  166.1677 C.ar    1  UNL1        0.0359
      9 C         140.3591  140.5535  164.7722 C.ar    1  UNL1        0.0204
     10 C         139.9793  139.5885  163.6884 C.ar    1  UNL1        0.0825
     11 N         140.4919  139.7882  162.2929 N.pl3   1  UNL1       -0.3017
     12 C         141.6289  138.9523  161.7847 C.3     1  UNL1        0.1124
     13 C         142.1415  139.1519  160.3893 C.3     1  UNL1        0.1149
     14 N         141.5170  140.1877  159.5019 N.am    1  UNL1       -0.2741
     15 C         142.0296  140.3873  158.1064 C.2     1  UNL1        0.2526
     16 O         141.4051  141.4230  157.2191 O.2     1  UNL1       -0.2723
     17 C         140.3799  141.0236  160.0100 C.3     1  UNL1        0.1149
     18 C         139.8674  140.8239  161.4056 C.3     1  UNL1        0.1124
     19 C         143.1666  139.5514  157.5983 C.3     1  UNL1        0.1869
     20 C         142.8881  138.3055  156.8108 C.3     1  UNL1        0.0417
     21 O         144.5822  139.9613  157.8775 O.3     1  UNL1       -0.3758
     22 H         145.1895  139.3168  157.4817 H       1  UNL1        0.2110
     23 C         140.0936  142.0843  169.7306 C.2     1  UNL1        0.2635
     24 N         140.4524  141.5760  171.0956 N.am    1  UNL1       -0.3240
     25 O         140.1147  143.5575  169.4494 O.2     1  UNL1       -0.2686
     26 H         140.4386  140.6090  171.2801 H       1  UNL1        0.1453
     27 H         140.7016  142.2094  171.8069 H       1  UNL1        0.1453
     28 C         137.7565  137.8807  161.8358 C.3     1  UNL1        0.2525
     29 O         138.7073  137.4587  162.9165 O.3     1  UNL1       -0.4701
     30 N         141.1186  142.4836  166.9396 N.pl3   1  UNL1       -0.3094
     31 H         141.8941  142.6773  167.5144 H       1  UNL1        0.1523
     32 C         140.8294  143.3532  165.7521 C.ar    1  UNL1        0.0761
     33 C         139.4639  143.9473  165.5723 C.ar    1  UNL1        0.0166
     34 C         139.1746  144.8169  164.3849 C.ar    1  UNL1       -0.0028
     35 C         140.2510  145.0924  163.3771 C.ar    1  UNL1       -0.0195
     36 C         139.9618  145.9620  162.1896 C.3     1  UNL1        0.0311
     37 C         141.6166  144.4984  163.5568 C.ar    1  UNL1        0.0267
     38 C         141.9058  143.6287  164.7444 C.ar    1  UNL1        0.1531
     39 F         143.2713  143.0347  164.9241 F       1  UNL1       -0.2029
@<TRIPOS>BOND
     1    28    29    1
     2    29     1    1
     3     1     2   ar
     4     2     3   ar
     5     3     4   ar
     6     4     5   ar
     7     5     6   ar
     8     6    23    1
     9    23    24   am
    10    23    25    2
    11     6     7   ar
    12     7    30    1
    13    30    32    1
    14    32    33   ar
    15    33    34   ar
    16    34    35   ar
    17    35    36    1
    18    35    37   ar
    19    37    38   ar
    20    38    39    1
    21     7     8   ar
    22     8     9   ar
    23     9    10   ar
    24    10    11    1
    25    11    12    1
    26    12    13    1
    27    13    14    1
    28    14    15   am
    29    15    16    2
    30    15    19    1
    31    19    20    1
    32    19    21    1
    33    14    17    1
    34    17    18    1
    35    10     1   ar
    36    18    11    1
    37     8     3   ar
    38    38    32   ar
    39    24    26    1
    40    24    27    1
    41    30    31    1
    42    21    22    1
@<TRIPOS>MOLECULE
*****
 39 42 0 0 0
SMALL
GASTEIGER

@<TRIPOS>ATOM
      1 C         144.0375  139.9712  163.0502 C.ar    1  UNL1        0.1534
      2 C         144.2686  139.6242  161.6094 C.ar    1  UNL1        0.0591
      3 C         143.1013  139.3638  160.7041 C.ar    1  UNL1        0.1072
      4 N         143.3325  139.0169  159.2631 N.ar    1  UNL1       -0.1477
      5 N         142.1652  138.7565  158.3578 N.ar    1  UNL1       -0.1421
      6 C         140.7667  138.8431  158.8935 C.ar    1  UNL1        0.1690
      7 C         140.5356  139.1901  160.3343 C.ar    1  UNL1        0.0740
      8 C         141.7029  139.4504  161.2396 C.ar    1  UNL1        0.0359
      9 C         141.4718  139.7974  162.6805 C.ar    1  UNL1        0.0204
     10 C         142.6391  140.0578  163.5858 C.ar    1  UNL1        0.0825
     11 N         142.4080  140.4048  165.0267 N.pl3   1  UNL1       -0.3017
     12 C         142.4994  141.8322  165.4784 C.3     1  UNL1        0.1124
     13 C         142.2683  142.1792  166.9193 C.3     1  UNL1        0.1149
     14 N         141.9457  141.0988  167.9085 N.am    1  UNL1       -0.2741
     15 C         141.7145  141.4458  169.3494 C.2     1  UNL1        0.2526
     16 O         141.3919  140.3654  170.3386 O.2     1  UNL1       -0.2723
     17 C         141.8542  139.6713  167.4569 C.3     1  UNL1        0.1149
     18 C         142.0854  139.3243  166.0159 C.3     1  UNL1        0.1124
     19 C         141.8060  142.8733  169.8011 C.3     1  UNL1        0.1869
     20 C         140.5874  143.7475  169.7756 C.3     1  UNL1        0.0417
     21 O         143.1160  143.4265  170.2782 O.3     1  UNL1       -0.3758
     22 H         143.0017  144.3559  170.5311 H       1  UNL1        0.2110
     23 C         139.5994  138.5827  157.9882 C.2     1  UNL1        0.2635
     24 N         139.5597  137.3358  157.1553 N.am    1  UNL1       -0.3240
     25 O         138.4718  139.5693  157.9157 O.2     1  UNL1       -0.2686
     26 H         140.2998  136.6883  157.2029 H       1  UNL1        0.1453
     27 H         138.7935  137.1649  156.5611 H       1  UNL1        0.1453
     28 C         145.8935  141.5638  163.9271 C.3     1  UNL1        0.2525
     29 O         145.2049  140.2316  163.9555 O.3     1  UNL1       -0.4701
     30 N         139.1372  139.2767  160.8699 N.pl3   1  UNL1       -0.3094
     31 H         138.3828  139.4246  160.2548 H       1  UNL1        0.1523
     32 C         138.8881  139.1380  162.3426 C.ar    1  UNL1        0.0761
     33 C         139.0624  137.8062  163.0105 C.ar    1  UNL1        0.0166
     34 C         138.8133  137.6675  164.4832 C.ar    1  UNL1       -0.0028
     35 C         138.3900  138.8605  165.2879 C.ar    1  UNL1       -0.0195
     36 C         138.1409  138.7217  166.7606 C.3     1  UNL1        0.0311
     37 C         138.2157  140.1922  164.6200 C.ar    1  UNL1        0.0267
     38 C         138.4648  140.3309  163.1473 C.ar    1  UNL1        0.1531
     39 F         138.2905  141.6626  162.4794 F       1  UNL1       -0.2029
@<TRIPOS>BOND
     1    28    29    1
     2    29     1    1
     3     1     2   ar
     4     2     3   ar
     5     3     4   ar
     6     4     5   ar
     7     5     6   ar
     8     6    23    1
     9    23    24   am
    10    23    25    2
    11     6     7   ar
    12     7    30    1
    13    30    32    1
    14    32    33   ar
    15    33    34   ar
    16    34    35   ar
    17    35    36    1
    18    35    37   ar
    19    37    38   ar
    20    38    39    1
    21     7     8   ar
    22     8     9   ar
    23     9    10   ar
    24    10    11    1
    25    11    12    1
    26    12    13    1
    27    13    14    1
    28    14    15   am
    29    15    16    2
    30    15    19    1
    31    19    20    1
    32    19    21    1
    33    14    17    1
    34    17    18    1
    35    10     1   ar
    36    18    11    1
    37     8     3   ar
    38    38    32   ar
    39    24    26    1
    40    24    27    1
    41    30    31    1
    42    21    22    1
@<TRIPOS>MOLECULE
*****
 39 42 0 0 0
SMALL
GASTEIGER

@<TRIPOS>ATOM
      1 C         141.6434  138.1643  163.5327 C.ar    1  UNL1        0.1534
      2 C         141.8532  137.5912  162.1625 C.ar    1  UNL1        0.0591
      3 C         142.4836  138.4272  161.0884 C.ar    1  UNL1        0.1072
      4 N         142.6935  137.8540  159.7181 N.ar    1  UNL1       -0.1477
      5 N         143.3239  138.6900  158.6440 N.ar    1  UNL1       -0.1421
      6 C         143.7445  140.0991  158.9402 C.ar    1  UNL1        0.1690
      7 C         143.5347  140.6721  160.3104 C.ar    1  UNL1        0.0740
      8 C         142.9043  139.8362  161.3845 C.ar    1  UNL1        0.0359
      9 C         142.6944  140.4092  162.7547 C.ar    1  UNL1        0.0204
     10 C         142.0640  139.5733  163.8288 C.ar    1  UNL1        0.0825
     11 N         141.8542  140.1464  165.1991 N.pl3   1  UNL1       -0.3017
     12 C         142.9407  140.0462  166.2284 C.3     1  UNL1        0.1124
     13 C         142.7309  140.6193  167.5986 C.3     1  UNL1        0.1149
     14 N         141.4346  141.2926  167.9396 N.am    1  UNL1       -0.2741
     15 C         141.2248  141.8657  169.3098 C.2     1  UNL1        0.2526
     16 O         139.9285  142.5390  169.6507 O.2     1  UNL1       -0.2723
     17 C         140.3481  141.3928  166.9103 C.3     1  UNL1        0.1149
     18 C         140.5579  140.8197  165.5400 C.3     1  UNL1        0.1124
     19 C         142.3114  141.7655  170.3391 C.3     1  UNL1        0.1869
     20 C         143.4230  142.7724  170.3565 C.3     1  UNL1        0.0417
     21 O         142.2862  140.6585  171.3509 O.3     1  UNL1       -0.3758
     22 H         143.0545  140.7390  171.9374 H       1  UNL1        0.2110
     23 C         144.3750  140.9350  157.8660 C.2     1  UNL1        0.2635
     24 N         145.3860  140.3275  156.9392 N.am    1  UNL1       -0.3240
     25 O         143.9945  142.3784  157.7187 O.2     1  UNL1       -0.2686
     26 H         145.6357  139.3801  157.0359 H       1  UNL1        0.1453
     27 H         145.7998  140.8761  156.2342 H       1  UNL1        0.1453
     28 C         139.5375  137.4213  164.8605 C.3     1  UNL1        0.2525
     29 O         141.0129  137.3283  164.6068 O.3     1  UNL1       -0.4701
     30 N         143.9553  142.0811  160.6065 N.pl3   1  UNL1       -0.3094
     31 H         144.9084  142.3263  160.5793 H       1  UNL1        0.1523
     32 C         142.9238  143.1166  160.9440 C.ar    1  UNL1        0.0761
     33 C         141.7306  143.3043  160.0546 C.ar    1  UNL1        0.0166
     34 C         140.6991  144.3397  160.3921 C.ar    1  UNL1       -0.0028
     35 C         140.8608  145.1874  161.6190 C.ar    1  UNL1       -0.0195
     36 C         139.8293  146.2228  161.9565 C.3     1  UNL1        0.0311
     37 C         142.0540  144.9998  162.5084 C.ar    1  UNL1        0.0267
     38 C         143.0856  143.9643  162.1708 C.ar    1  UNL1        0.1531
     39 F         144.2788  143.7766  163.0602 F       1  UNL1       -0.2029
@<TRIPOS>BOND
     1    28    29    1
     2    29     1    1
     3     1     2   ar
     4     2     3   ar
     5     3     4   ar
     6     4     5   ar
     7     5     6   ar
     8     6    23    1
     9    23    24   am
    10    23    25    2
    11     6     7   ar
    12     7    30    1
    13    30    32    1
    14    32    33   ar
    15    33    34   ar
    16    34    35   ar
    17    35    36    1
    18    35    37   ar
    19    37    38   ar
    20    38    39    1
    21     7     8   ar
    22     8     9   ar
    23     9    10   ar
    24    10    11    1
    25    11    12    1
    26    12    13    1
    27    13    14    1
    28    14    15   am
    29    15    16    2
    30    15    19    1
    31    19    20    1
    32    19    21    1
    33    14    17    1
    34    17    18    1
    35    10     1   ar
    36    18    11    1
    37     8     3   ar
    38    38    32   ar
    39    24    26    1
    40    24    27    1
    41    30    31    1
    42    21    22    1
@<TRIPOS>MOLECULE
*****
 39 42 0 0 0
SMALL
GASTEIGER

@<TRIPOS>ATOM
      1 C         141.4966  144.5938  162.4345 C.ar    1  UNL1        0.1534
      2 C         141.2976  144.9252  160.9852 C.ar    1  UNL1        0.0591
      3 C         140.3720  144.0951  160.1462 C.ar    1  UNL1        0.1072
      4 N         140.1731  144.4266  158.6968 N.ar    1  UNL1       -0.1477
      5 N         139.2474  143.5964  157.8578 N.ar    1  UNL1       -0.1421
      6 C         138.5207  142.4347  158.4681 C.ar    1  UNL1        0.1690
      7 C         138.7196  142.1033  159.9174 C.ar    1  UNL1        0.0740
      8 C         139.6453  142.9334  160.7565 C.ar    1  UNL1        0.0359
      9 C         139.8442  142.6020  162.2058 C.ar    1  UNL1        0.0204
     10 C         140.7698  143.4322  163.0448 C.ar    1  UNL1        0.0825
     11 N         140.9688  143.1007  164.4942 N.pl3   1  UNL1       -0.3017
     12 C         142.2485  142.4641  164.9491 C.3     1  UNL1        0.1124
     13 C         142.4475  142.1326  166.3984 C.3     1  UNL1        0.1149
     14 N         141.3666  142.4377  167.3928 N.am    1  UNL1       -0.2741
     15 C         141.5656  142.1062  168.8421 C.2     1  UNL1        0.2526
     16 O         140.4847  142.4113  169.8365 O.2     1  UNL1       -0.2723
     17 C         140.0869  143.0743  166.9379 C.3     1  UNL1        0.1149
     18 C         139.8879  143.4058  165.4885 C.3     1  UNL1        0.1124
     19 C         142.8453  141.4697  169.2971 C.3     1  UNL1        0.1869
     20 C         143.9596  142.3220  169.8280 C.3     1  UNL1        0.0417
     21 O         143.0108  139.9808  169.2212 O.3     1  UNL1       -0.3758
     22 H         143.8891  139.7358  169.5519 H       1  UNL1        0.2110
     23 C         137.5951  141.6045  157.6291 C.2     1  UNL1        0.2635
     24 N         136.6699  142.2680  156.6524 N.am    1  UNL1       -0.3240
     25 O         137.5946  140.1109  157.7667 O.2     1  UNL1       -0.2686
     26 H         136.6702  143.2484  156.5621 H       1  UNL1        0.1453
     27 H         136.0623  141.7232  156.1017 H       1  UNL1        0.1453
     28 C         143.8912  145.1215  163.2931 C.3     1  UNL1        0.2525
     29 O         142.4222  145.4240  163.2736 O.3     1  UNL1       -0.4701
     30 N         137.9929  140.9416  160.5277 N.pl3   1  UNL1       -0.3094
     31 H         137.0216  140.8459  160.3987 H       1  UNL1        0.1523
     32 C         138.7461  139.9258  161.3345 C.ar    1  UNL1        0.0761
     33 C         139.8769  139.1621  160.7116 C.ar    1  UNL1        0.0166
     34 C         140.6301  138.1463  161.5184 C.ar    1  UNL1       -0.0028
     35 C         140.2525  137.8942  162.9480 C.ar    1  UNL1       -0.0195
     36 C         141.0057  136.8784  163.7547 C.3     1  UNL1        0.0311
     37 C         139.1216  138.6579  163.5709 C.ar    1  UNL1        0.0267
     38 C         138.3684  139.6737  162.7641 C.ar    1  UNL1        0.1531
     39 F         137.2376  140.4374  163.3870 F       1  UNL1       -0.2029
@<TRIPOS>BOND
     1    28    29    1
     2    29     1    1
     3     1     2   ar
     4     2     3   ar
     5     3     4   ar
     6     4     5   ar
     7     5     6   ar
     8     6    23    1
     9    23    24   am
    10    23    25    2
    11     6     7   ar
    12     7    30    1
    13    30    32    1
    14    32    33   ar
    15    33    34   ar
    16    34    35   ar
    17    35    36    1
    18    35    37   ar
    19    37    38   ar
    20    38    39    1
    21     7     8   ar
    22     8     9   ar
    23     9    10   ar
    24    10    11    1
    25    11    12    1
    26    12    13    1
    27    13    14    1
    28    14    15   am
    29    15    16    2
    30    15    19    1
    31    19    20    1
    32    19    21    1
    33    14    17    1
    34    17    18    1
    35    10     1   ar
    36    18    11    1
    37     8     3   ar
    38    38    32   ar
    39    24    26    1
    40    24    27    1
    41    30    31    1
    42    21    22    1
@<TRIPOS>MOLECULE
*****
 39 42 0 0 0
SMALL
GASTEIGER

@<TRIPOS>ATOM
      1 C         142.0431  143.3416  161.7943 C.ar    1  UNL1        0.1534
      2 C         141.9496  143.2309  160.3014 C.ar    1  UNL1        0.0591
      3 C         141.9333  141.8803  159.6490 C.ar    1  UNL1        0.1072
      4 N         141.8398  141.7696  158.1560 N.ar    1  UNL1       -0.1477
      5 N         141.8235  140.4190  157.5036 N.ar    1  UNL1       -0.1421
      6 C         141.9008  139.1791  158.3442 C.ar    1  UNL1        0.1690
      7 C         141.9944  139.2898  159.8372 C.ar    1  UNL1        0.0740
      8 C         142.0106  140.6404  160.4896 C.ar    1  UNL1        0.0359
      9 C         142.1042  140.7511  161.9825 C.ar    1  UNL1        0.0204
     10 C         142.1204  142.1017  162.6349 C.ar    1  UNL1        0.0825
     11 N         142.2140  142.2123  164.1279 N.pl3   1  UNL1       -0.3017
     12 C         140.9707  142.1448  164.9644 C.3     1  UNL1        0.1124
     13 C         141.0642  142.2554  166.4573 C.3     1  UNL1        0.1149
     14 N         142.4011  142.4336  167.1139 N.am    1  UNL1       -0.2741
     15 C         142.4946  142.5443  168.6069 C.2     1  UNL1        0.2526
     16 O         143.8314  142.7225  169.2634 O.2     1  UNL1       -0.2723
     17 C         143.6444  142.5012  166.2775 C.3     1  UNL1        0.1149
     18 C         143.5508  142.3905  164.7845 C.3     1  UNL1        0.1124
     19 C         141.2513  142.4767  169.4433 C.3     1  UNL1        0.1869
     20 C         140.5213  143.7362  169.8049 C.3     1  UNL1        0.0417
     21 O         140.7380  141.1497  169.9181 O.3     1  UNL1       -0.3758
     22 H         139.9327  141.2833  170.4422 H       1  UNL1        0.2110
     23 C         141.8846  137.8285  157.6919 C.2     1  UNL1        0.2635
     24 N         140.6924  137.3971  156.8901 N.am    1  UNL1       -0.3240
     25 O         143.0604  136.9092  157.8412 O.2     1  UNL1       -0.2686
     26 H         139.9206  138.0005  156.7921 H       1  UNL1        0.1453
     27 H         140.6817  136.5107  156.4619 H       1  UNL1        0.1453
     28 C         140.7701  145.3529  162.8355 C.3     1  UNL1        0.2525
     29 O         142.0594  144.6922  162.4467 O.3     1  UNL1       -0.4701
     30 N         142.0717  138.0499  160.6778 N.pl3   1  UNL1       -0.3094
     31 H         142.7066  137.3349  160.4432 H       1  UNL1        0.1523
     32 C         141.1817  137.8992  161.8758 C.ar    1  UNL1        0.0761
     33 C         141.7817  137.6815  163.2332 C.ar    1  UNL1        0.0166
     34 C         140.8918  137.5309  164.4312 C.ar    1  UNL1       -0.0028
     35 C         139.4017  137.5979  164.2719 C.ar    1  UNL1       -0.0195
     36 C         138.5118  137.4473  165.4699 C.3     1  UNL1        0.0311
     37 C         138.8017  137.8156  162.9145 C.ar    1  UNL1        0.0267
     38 C         139.6917  137.9663  161.7164 C.ar    1  UNL1        0.1531
     39 F         139.0917  138.1839  160.3590 F       1  UNL1       -0.2029
@<TRIPOS>BOND
     1    28    29    1
     2    29     1    1
     3     1     2   ar
     4     2     3   ar
     5     3     4   ar
     6     4     5   ar
     7     5     6   ar
     8     6    23    1
     9    23    24   am
    10    23    25    2
    11     6     7   ar
    12     7    30    1
    13    30    32    1
    14    32    33   ar
    15    33    34   ar
    16    34    35   ar
    17    35    36    1
    18    35    37   ar
    19    37    38   ar
    20    38    39    1
    21     7     8   ar
    22     8     9   ar
    23     9    10   ar
    24    10    11    1
    25    11    12    1
    26    12    13    1
    27    13    14    1
    28    14    15   am
    29    15    16    2
    30    15    19    1
    31    19    20    1
    32    19    21    1
    33    14    17    1
    34    17    18    1
    35    10     1   ar
    36    18    11    1
    37     8     3   ar
    38    38    32   ar
    39    24    26    1
    40    24    27    1
    41    30    31    1
    42    21    22    1
