@<TRIPOS>MOLECULE
*****
 30 34 0 0 0
SMALL
GASTEIGER

@<TRIPOS>ATOM
      1 C         138.4139  140.9567  163.1577 C.2     1  UNL1        0.2505
      2 O         137.3205  141.9293  162.8284 O.2     1  UNL1       -0.2699
      3 N         139.2526  140.3714  162.0604 N.am    1  UNL1       -0.2759
      4 C         139.1159  140.6626  160.5953 C.3     1  UNL1        0.0955
      5 C         140.1541  139.8633  159.8651 C.3     1  UNL1        0.0430
      6 C         140.7112  139.5492  158.5082 C.3     1  UNL1        0.0954
      7 N         141.8339  138.5700  158.6834 N.pl3   1  UNL1       -0.2781
      8 C         141.9706  138.2788  160.1486 C.3     1  UNL1        0.0954
      9 C         140.9324  139.0781  160.8788 C.3     1  UNL1        0.0430
     10 C         140.3753  139.3921  162.2356 C.3     1  UNL1        0.0955
     11 C         142.6726  137.9847  157.5862 C.ar    1  UNL1        0.2195
     12 N         142.7427  136.4970  157.4081 N.ar    1  UNL1       -0.2180
     13 C         143.5815  135.9116  156.3108 C.ar    1  UNL1        0.0634
     14 C         143.6516  134.4239  156.1327 C.3     1  UNL1        0.0522
     15 C         144.3500  136.8141  155.3916 C.ar    1  UNL1        0.0296
     16 C         144.2799  138.3019  155.5697 C.ar    1  UNL1        0.0634
     17 C         145.0485  139.2043  154.6505 C.3     1  UNL1        0.0522
     18 N         143.4412  138.8872  156.6669 N.ar    1  UNL1       -0.2180
     19 C         137.4227  137.8903  167.2338 C.3     1  UNL1        0.0310
     20 C         138.1731  139.0362  166.6224 C.ar    1  UNL1       -0.0216
     21 C         139.1781  139.7947  167.4375 C.ar    1  UNL1       -0.0026
     22 C         139.9285  140.9407  166.8259 C.ar    1  UNL1        0.0207
     23 C         139.6737  141.3280  165.3993 C.ar    1  UNL1        0.1072
     24 C         138.6686  140.5693  164.5843 C.ar    1  UNL1        0.0726
     25 C         137.9183  139.4235  165.1958 C.ar    1  UNL1        0.0018
     26 N         140.4241  142.4739  164.7879 N.ar    1  UNL1       -0.1477
     27 N         139.9954  143.9113  164.7926 N.ar    1  UNL1       -0.1447
     28 C         141.0413  144.7093  164.0720 C.ar    1  UNL1        0.1446
     29 C         142.1163  143.7650  163.6219 C.ar    1  UNL1        0.1446
     30 N         141.7349  142.3835  164.0643 N.ar    1  UNL1       -0.1447
@<TRIPOS>BOND
     1    19    20    1
     2    20    21   ar
     3    21    22   ar
     4    22    23   ar
     5    23    26    1
     6    26    27   ar
     7    27    28   ar
     8    28    29   ar
     9    29    30   ar
    10    23    24   ar
    11    24     1    1
    12     1     2    2
    13     1     3   am
    14     3     4    1
    15     5     4    1
    16     5     6    1
    17     6     7    1
    18     7    11    1
    19    11    12   ar
    20    12    13   ar
    21    13    14    1
    22    13    15   ar
    23    15    16   ar
    24    16    17    1
    25    16    18   ar
    26     7     8    1
    27     9     8    1
    28     9    10    1
    29    24    25   ar
    30    25    20   ar
    31    30    26   ar
    32    10     3    1
    33     9     5    1
    34    18    11   ar
@<TRIPOS>MOLECULE
*****
 30 34 0 0 0
SMALL
GASTEIGER

@<TRIPOS>ATOM
      1 C         138.5226  141.2849  163.0669 C.2     1  UNL1        0.2505
      2 O         137.0898  141.6469  162.8102 O.2     1  UNL1       -0.2699
      3 N         139.3365  140.6334  161.9884 N.am    1  UNL1       -0.2759
      4 C         138.8564  140.2843  160.6109 C.3     1  UNL1        0.0955
      5 C         139.9965  139.6518  159.8692 C.3     1  UNL1        0.0430
      6 C         140.4045  139.0450  158.5594 C.3     1  UNL1        0.0954
      7 N         141.8412  138.6282  158.6691 N.pl3   1  UNL1       -0.2781
      8 C         142.3213  138.9774  160.0467 C.3     1  UNL1        0.0954
      9 C         141.1812  139.6099  160.7884 C.3     1  UNL1        0.0430
     10 C         140.7732  140.2166  162.0981 C.3     1  UNL1        0.0955
     11 C         142.6550  137.9767  157.5907 C.ar    1  UNL1        0.2195
     12 N         143.4191  138.8209  156.6141 N.ar    1  UNL1       -0.2180
     13 C         144.2330  138.1694  155.5356 C.ar    1  UNL1        0.0634
     14 C         144.9971  139.0135  154.5591 C.3     1  UNL1        0.0522
     15 C         144.2828  136.6737  155.4336 C.ar    1  UNL1        0.0296
     16 C         143.5186  135.8295  156.4102 C.ar    1  UNL1        0.0634
     17 C         143.5684  134.3337  156.3081 C.3     1  UNL1        0.0522
     18 N         142.7048  136.4810  157.4886 N.ar    1  UNL1       -0.2180
     19 C         139.4862  139.8882  167.9782 C.3     1  UNL1        0.0310
     20 C         139.6235  140.8761  166.8579 C.ar    1  UNL1       -0.0216
     21 C         140.3797  142.1536  167.0728 C.ar    1  UNL1       -0.0026
     22 C         140.5169  143.1415  165.9524 C.ar    1  UNL1        0.0207
     23 C         139.8979  142.8520  164.6171 C.ar    1  UNL1        0.1072
     24 C         139.1416  141.5745  164.4022 C.ar    1  UNL1        0.0726
     25 C         139.0045  140.5866  165.5226 C.ar    1  UNL1        0.0018
     26 N         140.0351  143.8399  163.4968 N.ar    1  UNL1       -0.1477
     27 N         141.0870  143.8201  162.4276 N.ar    1  UNL1       -0.1447
     28 C         140.8465  144.9891  161.5190 C.ar    1  UNL1        0.1446
     29 C         139.6460  145.7314  162.0266 C.ar    1  UNL1        0.1446
     30 N         139.1445  145.0212  163.2490 N.ar    1  UNL1       -0.1447
@<TRIPOS>BOND
     1    19    20    1
     2    20    21   ar
     3    21    22   ar
     4    22    23   ar
     5    23    26    1
     6    26    27   ar
     7    27    28   ar
     8    28    29   ar
     9    29    30   ar
    10    23    24   ar
    11    24     1    1
    12     1     2    2
    13     1     3   am
    14     3     4    1
    15     5     4    1
    16     5     6    1
    17     6     7    1
    18     7    11    1
    19    11    12   ar
    20    12    13   ar
    21    13    14    1
    22    13    15   ar
    23    15    16   ar
    24    16    17    1
    25    16    18   ar
    26     7     8    1
    27     9     8    1
    28     9    10    1
    29    24    25   ar
    30    25    20   ar
    31    30    26   ar
    32    10     3    1
    33     9     5    1
    34    18    11   ar
@<TRIPOS>MOLECULE
*****
 30 34 0 0 0
SMALL
GASTEIGER

@<TRIPOS>ATOM
      1 C         140.4521  138.0212  163.2615 C.2     1  UNL1        0.2505
      2 O         141.3607  136.8364  163.1183 O.2     1  UNL1       -0.2699
      3 N         139.8655  138.6683  162.0420 N.am    1  UNL1       -0.2759
      4 C         140.0955  138.2440  160.6218 C.3     1  UNL1        0.0955
      5 C         139.3180  139.1668  159.7307 C.3     1  UNL1        0.0430
      6 C         138.9796  139.4749  158.3023 C.3     1  UNL1        0.0954
      7 N         138.0600  140.6599  158.2889 N.pl3   1  UNL1       -0.2781
      8 C         137.8301  141.0842  159.7092 C.3     1  UNL1        0.0954
      9 C         138.6075  140.1614  160.6003 C.3     1  UNL1        0.0430
     10 C         138.9459  139.8533  162.0288 C.3     1  UNL1        0.0955
     11 C         137.4734  141.3070  157.0695 C.ar    1  UNL1        0.2195
     12 N         137.8246  142.7254  156.7306 N.ar    1  UNL1       -0.2180
     13 C         137.2380  143.3725  155.5111 C.ar    1  UNL1        0.0634
     14 C         137.5892  144.7909  155.1722 C.3     1  UNL1        0.0522
     15 C         136.3001  142.6013  154.6305 C.ar    1  UNL1        0.0296
     16 C         135.9489  141.1828  154.9694 C.ar    1  UNL1        0.0634
     17 C         135.0109  140.4115  154.0887 C.3     1  UNL1        0.0522
     18 N         136.5355  140.5357  156.1888 N.ar    1  UNL1       -0.2180
     19 C         137.2560  138.3020  167.3488 C.3     1  UNL1        0.0310
     20 C         138.5321  138.6994  166.6679 C.ar    1  UNL1       -0.0216
     21 C         139.4863  139.6346  167.3499 C.ar    1  UNL1       -0.0026
     22 C         140.7624  140.0320  166.6689 C.ar    1  UNL1        0.0207
     23 C         141.0844  139.4942  165.3062 C.ar    1  UNL1        0.1072
     24 C         140.1302  138.5590  164.6243 C.ar    1  UNL1        0.0726
     25 C         138.8541  138.1616  165.3052 C.ar    1  UNL1        0.0018
     26 N         142.3605  139.8916  164.6253 N.ar    1  UNL1       -0.1477
     27 N         143.7155  139.2995  164.8770 N.ar    1  UNL1       -0.1447
     28 C         144.6981  139.9929  163.9805 C.ar    1  UNL1        0.1446
     29 C         143.9504  141.0135  163.1748 C.ar    1  UNL1        0.1446
     30 N         142.5056  140.9509  163.5733 N.ar    1  UNL1       -0.1447
@<TRIPOS>BOND
     1    19    20    1
     2    20    21   ar
     3    21    22   ar
     4    22    23   ar
     5    23    26    1
     6    26    27   ar
     7    27    28   ar
     8    28    29   ar
     9    29    30   ar
    10    23    24   ar
    11    24     1    1
    12     1     2    2
    13     1     3   am
    14     3     4    1
    15     5     4    1
    16     5     6    1
    17     6     7    1
    18     7    11    1
    19    11    12   ar
    20    12    13   ar
    21    13    14    1
    22    13    15   ar
    23    15    16   ar
    24    16    17    1
    25    16    18   ar
    26     7     8    1
    27     9     8    1
    28     9    10    1
    29    24    25   ar
    30    25    20   ar
    31    30    26   ar
    32    10     3    1
    33     9     5    1
    34    18    11   ar
@<TRIPOS>MOLECULE
*****
 30 34 0 0 0
SMALL
GASTEIGER

@<TRIPOS>ATOM
      1 C         143.4147  142.4304  163.9038 C.2     1  UNL1        0.2505
      2 O         144.5573  143.3998  163.8373 O.2     1  UNL1       -0.2699
      3 N         143.1301  141.5256  162.7417 N.am    1  UNL1       -0.2759
      4 C         143.8973  141.4769  161.4537 C.3     1  UNL1        0.0955
      5 C         143.2696  140.4320  160.5796 C.3     1  UNL1        0.0430
      6 C         143.3559  139.7560  159.2433 C.3     1  UNL1        0.0954
      7 N         142.2540  138.7412  159.1652 N.pl3   1  UNL1       -0.2781
      8 C         141.4868  138.7899  160.4532 C.3     1  UNL1        0.0954
      9 C         142.1145  139.8349  161.3274 C.3     1  UNL1        0.0430
     10 C         142.0282  140.5108  162.6636 C.3     1  UNL1        0.0955
     11 C         141.9694  137.8365  158.0031 C.ar    1  UNL1        0.2195
     12 N         140.6407  137.9011  157.3102 N.ar    1  UNL1       -0.2180
     13 C         140.3560  136.9963  156.1481 C.ar    1  UNL1        0.0634
     14 C         139.0272  137.0609  155.4551 C.3     1  UNL1        0.0522
     15 C         141.4001  136.0270  155.6789 C.ar    1  UNL1        0.0296
     16 C         142.7290  135.9624  156.3719 C.ar    1  UNL1        0.0634
     17 C         143.7732  134.9930  155.9027 C.3     1  UNL1        0.0522
     18 N         143.0136  136.8671  157.5339 N.ar    1  UNL1       -0.2180
     19 C         142.6196  140.7432  168.7537 C.3     1  UNL1        0.0310
     20 C         142.1590  141.5221  167.5574 C.ar    1  UNL1       -0.0216
     21 C         140.8403  142.2363  167.5897 C.ar    1  UNL1       -0.0026
     22 C         140.3798  143.0152  166.3933 C.ar    1  UNL1        0.0207
     23 C         141.2379  143.0799  165.1647 C.ar    1  UNL1        0.1072
     24 C         142.5566  142.3657  165.1324 C.ar    1  UNL1        0.0726
     25 C         143.0171  141.5868  166.3288 C.ar    1  UNL1        0.0018
     26 N         140.7773  143.8588  163.9684 N.ar    1  UNL1       -0.1477
     27 N         141.2314  145.2360  163.5847 N.ar    1  UNL1       -0.1447
     28 C         140.5164  145.6256  162.3249 C.ar    1  UNL1        0.1446
     29 C         139.6206  144.4892  161.9300 C.ar    1  UNL1        0.1446
     30 N         139.7818  143.3973  162.9457 N.ar    1  UNL1       -0.1447
@<TRIPOS>BOND
     1    19    20    1
     2    20    21   ar
     3    21    22   ar
     4    22    23   ar
     5    23    26    1
     6    26    27   ar
     7    27    28   ar
     8    28    29   ar
     9    29    30   ar
    10    23    24   ar
    11    24     1    1
    12     1     2    2
    13     1     3   am
    14     3     4    1
    15     5     4    1
    16     5     6    1
    17     6     7    1
    18     7    11    1
    19    11    12   ar
    20    12    13   ar
    21    13    14    1
    22    13    15   ar
    23    15    16   ar
    24    16    17    1
    25    16    18   ar
    26     7     8    1
    27     9     8    1
    28     9    10    1
    29    24    25   ar
    30    25    20   ar
    31    30    26   ar
    32    10     3    1
    33     9     5    1
    34    18    11   ar
@<TRIPOS>MOLECULE
*****
 30 34 0 0 0
SMALL
GASTEIGER

@<TRIPOS>ATOM
      1 C         141.7043  139.3347  163.8602 C.2     1  UNL1        0.2505
      2 O         142.6507  138.1739  163.7771 O.2     1  UNL1       -0.2699
      3 N         140.9103  139.7428  162.6548 N.am    1  UNL1       -0.2759
      4 C         140.9568  139.0890  161.3056 C.3     1  UNL1        0.0955
      5 C         140.0057  139.8186  160.4040 C.3     1  UNL1        0.0430
      6 C         139.4465  139.8654  159.0129 C.3     1  UNL1        0.0954
      7 N         138.4666  140.9991  158.9450 N.pl3   1  UNL1       -0.2781
      8 C         138.4201  141.6529  160.2943 C.3     1  UNL1        0.0954
      9 C         139.3713  140.9233  161.1959 C.3     1  UNL1        0.0430
     10 C         139.9305  140.8765  162.5870 C.3     1  UNL1        0.0955
     11 C         137.6726  141.4072  157.7397 C.ar    1  UNL1        0.2195
     12 N         136.6341  140.4825  157.1773 N.ar    1  UNL1       -0.2180
     13 C         135.8400  140.8906  155.9719 C.ar    1  UNL1        0.0634
     14 C         134.8015  139.9659  155.4095 C.3     1  UNL1        0.0522
     15 C         136.0846  142.2236  155.3289 C.ar    1  UNL1        0.0296
     16 C         137.1231  143.1484  155.8913 C.ar    1  UNL1        0.0634
     17 C         137.3676  144.4814  155.2483 C.3     1  UNL1        0.0522
     18 N         137.9171  142.7402  157.0966 N.ar    1  UNL1       -0.2180
     19 C         139.2884  140.0284  168.4079 C.3     1  UNL1        0.0310
     20 C         140.3440  140.4343  167.4226 C.ar    1  UNL1       -0.0216
     21 C         141.2474  141.5927  167.7258 C.ar    1  UNL1       -0.0026
     22 C         142.3031  141.9985  166.7404 C.ar    1  UNL1        0.0207
     23 C         142.4554  141.2458  165.4519 C.ar    1  UNL1        0.1072
     24 C         141.5520  140.0873  165.1487 C.ar    1  UNL1        0.0726
     25 C         140.4964  139.6816  166.1341 C.ar    1  UNL1        0.0018
     26 N         143.5111  141.6516  164.4665 N.ar    1  UNL1       -0.1477
     27 N         143.3896  142.7413  163.4429 N.ar    1  UNL1       -0.1447
     28 C         144.6771  142.8021  162.6756 C.ar    1  UNL1        0.1446
     29 C         145.5942  141.7500  163.2251 C.ar    1  UNL1        0.1446
     30 N         144.8736  141.0390  164.3319 N.ar    1  UNL1       -0.1447
@<TRIPOS>BOND
     1    19    20    1
     2    20    21   ar
     3    21    22   ar
     4    22    23   ar
     5    23    26    1
     6    26    27   ar
     7    27    28   ar
     8    28    29   ar
     9    29    30   ar
    10    23    24   ar
    11    24     1    1
    12     1     2    2
    13     1     3   am
    14     3     4    1
    15     5     4    1
    16     5     6    1
    17     6     7    1
    18     7    11    1
    19    11    12   ar
    20    12    13   ar
    21    13    14    1
    22    13    15   ar
    23    15    16   ar
    24    16    17    1
    25    16    18   ar
    26     7     8    1
    27     9     8    1
    28     9    10    1
    29    24    25   ar
    30    25    20   ar
    31    30    26   ar
    32    10     3    1
    33     9     5    1
    34    18    11   ar
@<TRIPOS>MOLECULE
*****
 30 34 0 0 0
SMALL
GASTEIGER

@<TRIPOS>ATOM
      1 C         144.2196  141.7923  162.8730 C.2     1  UNL1        0.2505
      2 O         145.7094  141.7604  162.7019 O.2     1  UNL1       -0.2699
      3 N         143.3507  142.3417  161.7806 N.am    1  UNL1       -0.2759
      4 C         143.8260  142.8913  160.4684 C.3     1  UNL1        0.0955
      5 C         142.6231  143.3271  159.6854 C.3     1  UNL1        0.0430
      6 C         142.1733  143.9361  158.3905 C.3     1  UNL1        0.0954
      7 N         140.6766  144.0323  158.4185 N.pl3   1  UNL1       -0.2781
      8 C         140.2014  143.4826  159.7309 C.3     1  UNL1        0.0954
      9 C         141.4043  143.0468  160.5138 C.3     1  UNL1        0.0430
     10 C         141.8541  142.4378  161.8087 C.3     1  UNL1        0.0955
     11 C         139.8078  144.5816  157.3262 C.ar    1  UNL1        0.2195
     12 N         139.9460  146.0153  156.9074 N.ar    1  UNL1       -0.2180
     13 C         139.0771  146.5646  155.8150 C.ar    1  UNL1        0.0634
     14 C         139.2152  147.9983  155.3961 C.3     1  UNL1        0.0522
     15 C         138.0701  145.6802  155.1414 C.ar    1  UNL1        0.0296
     16 C         137.9319  144.2465  155.5602 C.ar    1  UNL1        0.0634
     17 C         136.9248  143.3621  154.8866 C.3     1  UNL1        0.0522
     18 N         138.8007  143.6972  156.6526 N.ar    1  UNL1       -0.2180
     19 C         143.0856  142.4017  167.9071 C.3     1  UNL1        0.0310
     20 C         143.0315  141.5796  166.6537 C.ar    1  UNL1       -0.0216
     21 C         142.3565  140.2401  166.6638 C.ar    1  UNL1       -0.0026
     22 C         142.3026  139.4180  165.4102 C.ar    1  UNL1        0.0207
     23 C         142.9236  139.9354  164.1466 C.ar    1  UNL1        0.1072
     24 C         143.5986  141.2749  164.1366 C.ar    1  UNL1        0.0726
     25 C         143.6525  142.0970  165.3901 C.ar    1  UNL1        0.0018
     26 N         142.8696  139.1133  162.8932 N.ar    1  UNL1       -0.1477
     27 N         144.0265  138.4058  162.2522 N.ar    1  UNL1       -0.1447
     28 C         143.5210  137.7096  161.0235 C.ar    1  UNL1        0.1446
     29 C         142.0517  137.9868  160.9051 C.ar    1  UNL1        0.1446
     30 N         141.6490  138.8543  162.0606 N.ar    1  UNL1       -0.1447
@<TRIPOS>BOND
     1    19    20    1
     2    20    21   ar
     3    21    22   ar
     4    22    23   ar
     5    23    26    1
     6    26    27   ar
     7    27    28   ar
     8    28    29   ar
     9    29    30   ar
    10    23    24   ar
    11    24     1    1
    12     1     2    2
    13     1     3   am
    14     3     4    1
    15     5     4    1
    16     5     6    1
    17     6     7    1
    18     7    11    1
    19    11    12   ar
    20    12    13   ar
    21    13    14    1
    22    13    15   ar
    23    15    16   ar
    24    16    17    1
    25    16    18   ar
    26     7     8    1
    27     9     8    1
    28     9    10    1
    29    24    25   ar
    30    25    20   ar
    31    30    26   ar
    32    10     3    1
    33     9     5    1
    34    18    11   ar
@<TRIPOS>MOLECULE
*****
 30 34 0 0 0
SMALL
GASTEIGER

@<TRIPOS>ATOM
      1 C         139.5285  139.8539  164.4245 C.2     1  UNL1        0.2505
      2 O         138.1095  139.4032  164.6071 O.2     1  UNL1       -0.2699
      3 N         140.2304  139.6121  163.1210 N.am    1  UNL1       -0.2759
      4 C         139.6452  138.9361  161.9167 C.3     1  UNL1        0.0955
      5 C         140.6939  138.9101  160.8445 C.3     1  UNL1        0.0430
      6 C         140.9803  138.4763  159.4374 C.3     1  UNL1        0.0954
      7 N         142.3906  138.8681  159.1095 N.pl3   1  UNL1       -0.2781
      8 C         142.9758  139.5442  160.3139 C.3     1  UNL1        0.0954
      9 C         141.9272  139.5701  161.3861 C.3     1  UNL1        0.0430
     10 C         141.6407  140.0040  162.7932 C.3     1  UNL1        0.0955
     11 C         143.0925  138.6264  157.8061 C.ar    1  UNL1        0.2195
     12 N         143.8156  139.7497  157.1240 N.ar    1  UNL1       -0.2180
     13 C         144.5175  139.5080  155.8206 C.ar    1  UNL1        0.0634
     14 C         145.2406  140.6313  155.1385 C.3     1  UNL1        0.0522
     15 C         144.4963  138.1429  155.1993 C.ar    1  UNL1        0.0296
     16 C         143.7732  137.0195  155.8814 C.ar    1  UNL1        0.0634
     17 C         143.7521  135.6544  155.2600 C.3     1  UNL1        0.0522
     18 N         143.0714  137.2613  157.1847 N.ar    1  UNL1       -0.2180
     19 C         142.4048  139.6281  168.7460 C.3     1  UNL1        0.0310
     20 C         141.6838  140.4335  167.7061 C.ar    1  UNL1       -0.0216
     21 C         141.6799  141.9313  167.7870 C.ar    1  UNL1       -0.0026
     22 C         140.9587  142.7366  166.7470 C.ar    1  UNL1        0.0207
     23 C         140.2416  142.0442  165.6261 C.ar    1  UNL1        0.1072
     24 C         140.2456  140.5463  165.5453 C.ar    1  UNL1        0.0726
     25 C         140.9667  139.7410  166.5852 C.ar    1  UNL1        0.0018
     26 N         139.5206  142.8496  164.5862 N.ar    1  UNL1       -0.1477
     27 N         138.0685  143.2246  164.6118 N.ar    1  UNL1       -0.1447
     28 C         137.7755  144.0282  163.3795 C.ar    1  UNL1        0.1446
     29 C         139.0466  144.1497  162.5924 C.ar    1  UNL1        0.1446
     30 N         140.1251  143.4213  163.3382 N.ar    1  UNL1       -0.1447
@<TRIPOS>BOND
     1    19    20    1
     2    20    21   ar
     3    21    22   ar
     4    22    23   ar
     5    23    26    1
     6    26    27   ar
     7    27    28   ar
     8    28    29   ar
     9    29    30   ar
    10    23    24   ar
    11    24     1    1
    12     1     2    2
    13     1     3   am
    14     3     4    1
    15     5     4    1
    16     5     6    1
    17     6     7    1
    18     7    11    1
    19    11    12   ar
    20    12    13   ar
    21    13    14    1
    22    13    15   ar
    23    15    16   ar
    24    16    17    1
    25    16    18   ar
    26     7     8    1
    27     9     8    1
    28     9    10    1
    29    24    25   ar
    30    25    20   ar
    31    30    26   ar
    32    10     3    1
    33     9     5    1
    34    18    11   ar
@<TRIPOS>MOLECULE
*****
 30 34 0 0 0
SMALL
GASTEIGER

@<TRIPOS>ATOM
      1 C         140.9070  142.1441  164.2572 C.2     1  UNL1        0.2505
      2 O         140.9753  143.0289  165.4665 O.2     1  UNL1       -0.2699
      3 N         140.7748  142.7498  162.8913 N.am    1  UNL1       -0.2759
      4 C         140.6992  144.2152  162.5801 C.3     1  UNL1        0.0955
      5 C         140.5727  144.3674  161.0933 C.3     1  UNL1        0.0430
      6 C         140.4478  145.3672  159.9820 C.3     1  UNL1        0.0954
      7 N         140.3680  144.6138  158.6874 N.pl3   1  UNL1       -0.2781
      8 C         140.4436  143.1483  158.9986 C.3     1  UNL1        0.0954
      9 C         140.5701  142.9961  160.4854 C.3     1  UNL1        0.0430
     10 C         140.6950  141.9963  161.5967 C.3     1  UNL1        0.0955
     11 C         140.2359  145.2193  157.3215 C.ar    1  UNL1        0.2195
     12 N         140.7132  144.4639  156.1167 N.ar    1  UNL1       -0.2180
     13 C         140.5810  145.0695  154.7508 C.ar    1  UNL1        0.0634
     14 C         141.0583  144.3141  153.5460 C.3     1  UNL1        0.0522
     15 C         139.9716  146.4306  154.5896 C.ar    1  UNL1        0.0296
     16 C         139.4943  147.1861  155.7945 C.ar    1  UNL1        0.0634
     17 C         138.8848  148.5473  155.6332 C.3     1  UNL1        0.0522
     18 N         139.6264  146.5805  157.1603 N.ar    1  UNL1       -0.2180
     19 C         138.5765  137.6302  165.3492 C.3     1  UNL1        0.0310
     20 C         139.8056  138.3967  164.9598 C.ar    1  UNL1       -0.0216
     21 C         141.0985  137.6728  164.7269 C.ar    1  UNL1       -0.0026
     22 C         142.3277  138.4395  164.3375 C.ar    1  UNL1        0.0207
     23 C         142.2638  139.9299  164.1809 C.ar    1  UNL1        0.1072
     24 C         140.9708  140.6537  164.4138 C.ar    1  UNL1        0.0726
     25 C         139.7417  139.8871  164.8032 C.ar    1  UNL1        0.0018
     26 N         143.4930  140.6964  163.7915 N.ar    1  UNL1       -0.1477
     27 N         144.4519  141.3626  164.7331 N.ar    1  UNL1       -0.1447
     28 C         145.5305  142.0092  163.9156 C.ar    1  UNL1        0.1446
     29 C         145.2382  141.7427  162.4687 C.ar    1  UNL1        0.1446
     30 N         143.9790  140.9313  162.3920 N.ar    1  UNL1       -0.1447
@<TRIPOS>BOND
     1    19    20    1
     2    20    21   ar
     3    21    22   ar
     4    22    23   ar
     5    23    26    1
     6    26    27   ar
     7    27    28   ar
     8    28    29   ar
     9    29    30   ar
    10    23    24   ar
    11    24     1    1
    12     1     2    2
    13     1     3   am
    14     3     4    1
    15     5     4    1
    16     5     6    1
    17     6     7    1
    18     7    11    1
    19    11    12   ar
    20    12    13   ar
    21    13    14    1
    22    13    15   ar
    23    15    16   ar
    24    16    17    1
    25    16    18   ar
    26     7     8    1
    27     9     8    1
    28     9    10    1
    29    24    25   ar
    30    25    20   ar
    31    30    26   ar
    32    10     3    1
    33     9     5    1
    34    18    11   ar
@<TRIPOS>MOLECULE
*****
 30 34 0 0 0
SMALL
GASTEIGER

@<TRIPOS>ATOM
      1 C         139.7449  142.4868  164.0433 C.2     1  UNL1        0.2505
      2 O         138.9529  143.7607  164.0511 O.2     1  UNL1       -0.2699
      3 N         139.8149  141.6548  162.7972 N.am    1  UNL1       -0.2759
      4 C         139.1490  141.9672  161.4899 C.3     1  UNL1        0.0955
      5 C         139.4858  140.8698  160.5244 C.3     1  UNL1        0.0430
      6 C         139.2823  140.3846  159.1196 C.3     1  UNL1        0.0954
      7 N         140.0306  139.0941  158.9620 N.pl3   1  UNL1       -0.2781
      8 C         140.6965  138.7818  160.2693 C.3     1  UNL1        0.0954
      9 C         140.3598  139.8792  161.2349 C.3     1  UNL1        0.0430
     10 C         140.5632  140.3644  162.6396 C.3     1  UNL1        0.0955
     11 C         140.1007  138.2622  157.7159 C.ar    1  UNL1        0.2195
     12 N         139.0147  138.3611  156.6859 N.ar    1  UNL1       -0.2180
     13 C         139.0847  137.5291  155.4397 C.ar    1  UNL1        0.0634
     14 C         137.9988  137.6281  154.4097 C.3     1  UNL1        0.0522
     15 C         140.2408  136.5981  155.2236 C.ar    1  UNL1        0.0296
     16 C         141.3268  136.4991  156.2537 C.ar    1  UNL1        0.0634
     17 C         142.4829  135.5680  156.0375 C.3     1  UNL1        0.0522
     18 N         141.2567  137.3311  157.4997 N.ar    1  UNL1       -0.2180
     19 C         139.7235  140.0754  168.6459 C.3     1  UNL1        0.0310
     20 C         140.4561  140.8393  167.5830 C.ar    1  UNL1       -0.0216
     21 C         141.9106  141.1613  167.7585 C.ar    1  UNL1       -0.0026
     22 C         142.6432  141.9252  166.6955 C.ar    1  UNL1        0.0207
     23 C         141.9213  142.3671  165.4571 C.ar    1  UNL1        0.1072
     24 C         140.4668  142.0450  165.2817 C.ar    1  UNL1        0.0726
     25 C         139.7342  141.2811  166.3446 C.ar    1  UNL1        0.0018
     26 N         142.6539  143.1309  164.3942 N.ar    1  UNL1       -0.1477
     27 N         142.6221  144.6175  164.1964 N.ar    1  UNL1       -0.1447
     28 C         143.4955  144.9476  163.0224 C.ar    1  UNL1        0.1446
     29 C         144.0670  143.6651  162.4947 C.ar    1  UNL1        0.1446
     30 N         143.5469  142.5423  163.3425 N.ar    1  UNL1       -0.1447
@<TRIPOS>BOND
     1    19    20    1
     2    20    21   ar
     3    21    22   ar
     4    22    23   ar
     5    23    26    1
     6    26    27   ar
     7    27    28   ar
     8    28    29   ar
     9    29    30   ar
    10    23    24   ar
    11    24     1    1
    12     1     2    2
    13     1     3   am
    14     3     4    1
    15     5     4    1
    16     5     6    1
    17     6     7    1
    18     7    11    1
    19    11    12   ar
    20    12    13   ar
    21    13    14    1
    22    13    15   ar
    23    15    16   ar
    24    16    17    1
    25    16    18   ar
    26     7     8    1
    27     9     8    1
    28     9    10    1
    29    24    25   ar
    30    25    20   ar
    31    30    26   ar
    32    10     3    1
    33     9     5    1
    34    18    11   ar
