@<TRIPOS>MOLECULE
*****
 41 47 0 0 0
SMALL
GASTEIGER

@<TRIPOS>ATOM
      1 C         137.7438  139.5911  161.9664 C.3     1  UNL1        0.0700
      2 C         137.6493  140.7386  162.9278 C.3     1  UNL1        0.0193
      3 C         138.2305  140.6131  164.3049 C.3     1  UNL1        0.0287
      4 C         138.9062  139.3399  164.7207 C.3     1  UNL1        0.0955
      5 C         139.0006  138.1924  163.7593 C.3     1  UNL1        0.0287
      6 C         138.4194  138.3181  162.3821 C.3     1  UNL1        0.0193
      7 O         138.6027  139.3618  163.9555 O.3     1  UNL1       -0.3571
      8 C         138.0772  139.4753  162.7104 C.3     1  UNL1        0.1562
      9 N         137.1626  139.7167  160.5893 N.3     1  UNL1       -0.2925
     10 H         136.9183  138.7740  160.2857 H       1  UNL1        0.1236
     11 C         137.9730  140.3304  159.4864 C.3     1  UNL1        0.1161
     12 O         141.7072  135.0464  155.1406 O.2     1  UNL1       -0.2707
     13 C         141.7402  136.1584  156.1468 C.2     1  UNL1        0.2718
     14 C         143.0510  136.6210  156.7104 C.3     1  UNL1        0.2898
     15 O         143.0841  137.7331  157.7166 O.3     1  UNL1       -0.4627
     16 C         141.8063  138.3824  158.1591 C.ar    1  UNL1        0.1716
     17 C         141.8393  139.4944  159.1652 C.ar    1  UNL1        0.0524
     18 C         140.5615  140.1437  159.6076 C.ar    1  UNL1        0.0757
     19 CL        140.5947  141.2558  160.6138 Cl      1  UNL1       -0.0809
     20 C         139.2508  139.6810  159.0439 C.ar    1  UNL1        0.0870
     21 N         139.2178  138.5690  158.0377 N.ar    1  UNL1       -0.2296
     22 C         140.4956  137.9197  157.5953 C.ar    1  UNL1        0.1683
     23 N         140.4625  136.8077  156.5892 N.am    1  UNL1       -0.2639
     24 H         139.6021  136.5041  156.2192 H       1  UNL1        0.1565
     25 C         139.4874  139.2144  166.0978 C.3     1  UNL1        0.0604
     26 C         140.6280  140.0953  166.5136 C.3     1  UNL1        0.1335
     27 O         141.1249  139.8424  165.1211 O.3     1  UNL1       -0.3806
     28 C         141.8725  140.9233  166.6384 C.3     1  UNL1        0.1402
     29 N         141.9064  141.5039  168.0211 N.ar    1  UNL1       -0.2915
     30 C         142.8933  142.3991  168.7099 C.ar    1  UNL1        0.2611
     31 O         144.1169  142.8684  167.9801 O.2     1  UNL1       -0.2670
     32 C         142.6566  142.8251  170.1285 C.ar    1  UNL1        0.0623
     33 C         141.4330  142.3558  170.8583 C.ar    1  UNL1        0.0254
     34 C         140.4461  141.4606  170.1695 C.ar    1  UNL1        0.0972
     35 N         139.1552  140.8467  170.6459 N.ar    1  UNL1       -0.2400
     36 C         138.2618  139.9589  169.8312 C.ar    1  UNL1        0.1282
     37 C         138.6306  139.6176  168.4179 C.ar    1  UNL1        0.1588
     38 F         137.7372  138.7299  167.6032 F       1  UNL1       -0.2027
     39 C         139.8928  140.1641  167.8192 C.ar    1  UNL1        0.0500
     40 C         140.6828  141.0346  168.7509 C.ar    1  UNL1        0.0806
     41 H         141.9631  140.3117  164.9866 H       1  UNL1        0.2108
@<TRIPOS>BOND
     1    12    13    2
     2    13    14    1
     3    14    15    1
     4    15    16    1
     5    16    17   ar
     6    17    18   ar
     7    18    19    1
     8    18    20   ar
     9    20    11    1
    10    11     9    1
    11     9     1    1
    12     1     2    1
    13     2     3    1
    14     3     4    1
    15     4    25    1
    16    25    26    1
    17    26    27    1
    18    26    28    1
    19    28    29    1
    20    29    30   ar
    21    30    31    2
    22    30    32   ar
    23    32    33   ar
    24    33    34   ar
    25    34    35   ar
    26    35    36   ar
    27    36    37   ar
    28    37    38    1
    29    37    39   ar
    30    39    40   ar
    31     4     5    1
    32     5     6    1
    33     4     7    1
    34     7     8    1
    35    20    21   ar
    36    21    22   ar
    37    22    23    1
    38    23    13   am
    39    22    16   ar
    40     6     1    1
    41     8     1    1
    42    39    26    1
    43    40    29   ar
    44    40    34   ar
    45     9    10    1
    46    27    41    1
    47    23    24    1
@<TRIPOS>MOLECULE
*****
 41 47 0 0 0
SMALL
GASTEIGER

@<TRIPOS>ATOM
      1 C         137.7470  139.5787  162.0450 C.3     1  UNL1        0.0700
      2 C         137.6381  140.6842  163.0529 C.3     1  UNL1        0.0193
      3 C         138.2508  140.5227  164.4125 C.3     1  UNL1        0.0287
      4 C         138.9725  139.2555  164.7642 C.3     1  UNL1        0.0955
      5 C         139.0814  138.1500  163.7563 C.3     1  UNL1        0.0287
      6 C         138.4687  138.3116  162.3967 C.3     1  UNL1        0.0193
      7 O         138.6529  139.2980  164.0065 O.3     1  UNL1       -0.3571
      8 C         138.0989  139.4440  162.7772 C.3     1  UNL1        0.1562
      9 N         137.1343  139.7402  160.6854 N.3     1  UNL1       -0.2925
     10 H         136.8599  138.8086  160.3735 H       1  UNL1        0.1236
     11 C         137.9310  140.3525  159.5717 C.3     1  UNL1        0.1161
     12 O         143.9294  144.5769  162.2032 O.2     1  UNL1       -0.2707
     13 C         143.4082  143.3685  161.4833 C.2     1  UNL1        0.2718
     14 C         144.3654  142.3600  160.9207 C.3     1  UNL1        0.2898
     15 O         143.8443  141.1515  160.2007 O.3     1  UNL1       -0.4627
     16 C         142.3660  140.9518  160.0435 C.ar    1  UNL1        0.1716
     17 C         141.8448  139.7435  159.3236 C.ar    1  UNL1        0.0524
     18 C         140.3665  139.5437  159.1663 C.ar    1  UNL1        0.0757
     19 CL        139.8454  138.3353  158.4464 Cl      1  UNL1       -0.0809
     20 C         139.4094  140.5523  159.7290 C.ar    1  UNL1        0.0870
     21 N         139.9305  141.7606  160.4489 N.ar    1  UNL1       -0.2296
     22 C         141.4088  141.9604  160.6061 C.ar    1  UNL1        0.1683
     23 N         141.9299  143.1687  161.3260 N.am    1  UNL1       -0.2639
     24 H         141.3017  143.8307  161.6953 H       1  UNL1        0.1565
     25 C         139.5852  139.0940  166.1238 C.3     1  UNL1        0.0604
     26 C         140.6990  140.0005  166.5570 C.3     1  UNL1        0.1335
     27 O         141.2574  139.7053  165.1965 O.3     1  UNL1       -0.3806
     28 C         141.9295  140.8454  166.7059 C.3     1  UNL1        0.1402
     29 N         141.8987  141.4732  168.0678 N.ar    1  UNL1       -0.2915
     30 C         142.8471  142.4018  168.7665 C.ar    1  UNL1        0.2611
     31 O         144.0966  142.8587  168.0736 O.2     1  UNL1       -0.2670
     32 C         142.5459  142.8737  170.1582 C.ar    1  UNL1        0.0623
     33 C         141.2964  142.4168  170.8510 C.ar    1  UNL1        0.0254
     34 C         140.3481  141.4882  170.1523 C.ar    1  UNL1        0.0972
     35 N         139.0435  140.8775  170.5943 N.ar    1  UNL1       -0.2400
     36 C         138.1939  139.9530  169.7736 C.ar    1  UNL1        0.1282
     37 C         138.6261  139.5674  168.3899 C.ar    1  UNL1        0.1588
     38 F         137.7765  138.6429  167.5692 F       1  UNL1       -0.2027
     39 C         139.9078  140.1062  167.8270 C.ar    1  UNL1        0.0500
     40 C         140.6493  141.0164  168.7607 C.ar    1  UNL1        0.0806
     41 H         142.0963  140.1785  165.0817 H       1  UNL1        0.2108
@<TRIPOS>BOND
     1    12    13    2
     2    13    14    1
     3    14    15    1
     4    15    16    1
     5    16    17   ar
     6    17    18   ar
     7    18    19    1
     8    18    20   ar
     9    20    11    1
    10    11     9    1
    11     9     1    1
    12     1     2    1
    13     2     3    1
    14     3     4    1
    15     4    25    1
    16    25    26    1
    17    26    27    1
    18    26    28    1
    19    28    29    1
    20    29    30   ar
    21    30    31    2
    22    30    32   ar
    23    32    33   ar
    24    33    34   ar
    25    34    35   ar
    26    35    36   ar
    27    36    37   ar
    28    37    38    1
    29    37    39   ar
    30    39    40   ar
    31     4     5    1
    32     5     6    1
    33     4     7    1
    34     7     8    1
    35    20    21   ar
    36    21    22   ar
    37    22    23    1
    38    23    13   am
    39    22    16   ar
    40     6     1    1
    41     8     1    1
    42    39    26    1
    43    40    29   ar
    44    40    34   ar
    45     9    10    1
    46    27    41    1
    47    23    24    1
@<TRIPOS>MOLECULE
*****
 41 47 0 0 0
SMALL
GASTEIGER

@<TRIPOS>ATOM
      1 C         137.9765  139.5977  161.2482 C.3     1  UNL1        0.0700
      2 C         138.5367  138.2349  161.5293 C.3     1  UNL1        0.0193
      3 C         139.3092  137.9872  162.7909 C.3     1  UNL1        0.0287
      4 C         139.5216  139.1024  163.7716 C.3     1  UNL1        0.0955
      5 C         138.9614  140.4651  163.4905 C.3     1  UNL1        0.0287
      6 C         138.1889  140.7128  162.2288 C.3     1  UNL1        0.0193
      7 O         139.0916  139.2862  163.0939 O.3     1  UNL1       -0.3571
      8 C         138.3930  139.5101  161.9531 C.3     1  UNL1        0.1562
      9 N         137.2039  139.8454  159.9865 N.3     1  UNL1       -0.2925
     10 H         136.7393  138.9690  159.7489 H       1  UNL1        0.1236
     11 C         137.9158  140.3075  158.7498 C.3     1  UNL1        0.1161
     12 O         141.9626  134.5998  155.3152 O.2     1  UNL1       -0.2707
     13 C         141.9291  135.8904  156.0790 C.2     1  UNL1        0.2718
     14 C         143.2109  136.5690  156.4615 C.3     1  UNL1        0.2898
     15 O         143.1774  137.8596  157.2253 O.3     1  UNL1       -0.4627
     16 C         141.8620  138.4716  157.6064 C.ar    1  UNL1        0.1716
     17 C         141.8284  139.7621  158.3701 C.ar    1  UNL1        0.0524
     18 C         140.5130  140.3741  158.7512 C.ar    1  UNL1        0.0757
     19 CL        140.4795  141.6647  159.5150 Cl      1  UNL1       -0.0809
     20 C         139.2311  139.6955  158.3686 C.ar    1  UNL1        0.0870
     21 N         139.2647  138.4049  157.6049 N.ar    1  UNL1       -0.2296
     22 C         140.5802  137.7929  157.2238 C.ar    1  UNL1        0.1683
     23 N         140.6136  136.5024  156.4601 N.am    1  UNL1       -0.2639
     24 H         139.7723  136.0570  156.2090 H       1  UNL1        0.1565
     25 C         140.2942  138.8547  165.0332 C.3     1  UNL1        0.0604
     26 C         139.7287  139.2821  166.3551 C.3     1  UNL1        0.1335
     27 O         138.6330  138.3135  166.0217 O.3     1  UNL1       -0.3806
     28 C         138.9342  139.5071  167.6074 C.3     1  UNL1        0.1402
     29 N         139.6570  140.5254  168.4384 N.ar    1  UNL1       -0.2915
     30 C         139.3453  141.1366  169.7722 C.ar    1  UNL1        0.2611
     31 O         138.1040  140.7323  170.5108 O.2     1  UNL1       -0.2670
     32 C         140.2749  142.1522  170.3674 C.ar    1  UNL1        0.0623
     33 C         141.5163  142.5566  169.6288 C.ar    1  UNL1        0.0254
     34 C         141.8280  141.9453  168.2950 C.ar    1  UNL1        0.0972
     35 N         142.9792  142.1565  167.3460 N.ar    1  UNL1       -0.2400
     36 C         143.1582  141.4629  166.0281 C.ar    1  UNL1        0.1282
     37 C         142.1399  140.4653  165.5612 C.ar    1  UNL1        0.1588
     38 F         142.3189  139.7717  164.2433 F       1  UNL1       -0.2027
     39 C         140.9427  140.1613  166.4122 C.ar    1  UNL1        0.0500
     40 C         140.8984  140.9297  167.6997 C.ar    1  UNL1        0.0806
     41 H         137.9799  138.3047  166.7389 H       1  UNL1        0.2108
@<TRIPOS>BOND
     1    12    13    2
     2    13    14    1
     3    14    15    1
     4    15    16    1
     5    16    17   ar
     6    17    18   ar
     7    18    19    1
     8    18    20   ar
     9    20    11    1
    10    11     9    1
    11     9     1    1
    12     1     2    1
    13     2     3    1
    14     3     4    1
    15     4    25    1
    16    25    26    1
    17    26    27    1
    18    26    28    1
    19    28    29    1
    20    29    30   ar
    21    30    31    2
    22    30    32   ar
    23    32    33   ar
    24    33    34   ar
    25    34    35   ar
    26    35    36   ar
    27    36    37   ar
    28    37    38    1
    29    37    39   ar
    30    39    40   ar
    31     4     5    1
    32     5     6    1
    33     4     7    1
    34     7     8    1
    35    20    21   ar
    36    21    22   ar
    37    22    23    1
    38    23    13   am
    39    22    16   ar
    40     6     1    1
    41     8     1    1
    42    39    26    1
    43    40    29   ar
    44    40    34   ar
    45     9    10    1
    46    27    41    1
    47    23    24    1
@<TRIPOS>MOLECULE
*****
 41 47 0 0 0
SMALL
GASTEIGER

@<TRIPOS>ATOM
      1 C         138.6084  141.1855  163.8633 C.3     1  UNL1        0.0700
      2 C         139.0485  140.9097  162.4561 C.3     1  UNL1        0.0193
      3 C         139.9309  141.8893  161.7406 C.3     1  UNL1        0.0287
      4 C         140.3730  143.1448  162.4323 C.3     1  UNL1        0.0955
      5 C         139.9329  143.4206  163.8395 C.3     1  UNL1        0.0287
      6 C         139.0505  142.4409  164.5549 C.3     1  UNL1        0.0193
      7 O         139.8897  142.6378  162.8651 O.3     1  UNL1       -0.3571
      8 C         139.0919  141.7520  163.5120 C.3     1  UNL1        0.1562
      9 N         137.7260  140.2059  164.5788 N.3     1  UNL1       -0.2925
     10 H         137.1074  140.7509  165.1793 H       1  UNL1        0.1236
     11 C         138.3342  139.1381  165.4388 C.3     1  UNL1        0.1161
     12 O         140.6802  142.1667  172.2267 O.2     1  UNL1       -0.2707
     13 C         141.0009  141.5021  170.9206 C.2     1  UNL1        0.2718
     14 C         142.4241  141.1825  170.5714 C.3     1  UNL1        0.2898
     15 O         142.7449  140.5179  169.2654 O.3     1  UNL1       -0.4627
     16 C         141.6422  140.1729  168.3088 C.ar    1  UNL1        0.1716
     17 C         141.9628  139.5084  167.0028 C.ar    1  UNL1        0.0524
     18 C         140.8601  139.1634  166.0462 C.ar    1  UNL1        0.0757
     19 CL        141.1808  138.4988  164.7402 Cl      1  UNL1       -0.0809
     20 C         139.4368  139.4831  166.3955 C.ar    1  UNL1        0.0870
     21 N         139.1162  140.1476  167.7015 N.ar    1  UNL1       -0.2296
     22 C         140.2189  140.4926  168.6581 C.ar    1  UNL1        0.1683
     23 N         139.8982  141.1571  169.9640 N.am    1  UNL1       -0.2639
     24 H         138.9640  141.3669  170.1933 H       1  UNL1        0.1565
     25 C         141.2554  144.1243  161.7168 C.3     1  UNL1        0.0604
     26 C         140.7329  144.8750  160.5279 C.3     1  UNL1        0.1335
     27 O         139.7350  145.4182  161.5073 O.3     1  UNL1       -0.3806
     28 C         140.0019  145.7393  159.5438 C.3     1  UNL1        0.1402
     29 N         140.6571  145.5733  158.2047 N.ar    1  UNL1       -0.2915
     30 C         140.3661  146.1776  156.8631 C.ar    1  UNL1        0.2611
     31 O         139.2300  147.1444  156.7065 O.2     1  UNL1       -0.2670
     32 C         141.2112  145.8150  155.6780 C.ar    1  UNL1        0.0623
     33 C         142.3472  144.8482  155.8346 C.ar    1  UNL1        0.0254
     34 C         142.6383  144.2439  157.1762 C.ar    1  UNL1        0.0972
     35 N         143.6932  143.2641  157.6208 N.ar    1  UNL1       -0.2400
     36 C         143.8630  142.7433  159.0172 C.ar    1  UNL1        0.1282
     37 C         142.9364  143.1987  160.1054 C.ar    1  UNL1        0.1588
     38 F         143.1063  142.6779  161.5017 F       1  UNL1       -0.2027
     39 C         141.8400  144.1749  159.7971 C.ar    1  UNL1        0.0500
     40 C         141.7932  144.6064  158.3613 C.ar    1  UNL1        0.0806
     41 H         139.1357  146.0304  161.0523 H       1  UNL1        0.2108
@<TRIPOS>BOND
     1    12    13    2
     2    13    14    1
     3    14    15    1
     4    15    16    1
     5    16    17   ar
     6    17    18   ar
     7    18    19    1
     8    18    20   ar
     9    20    11    1
    10    11     9    1
    11     9     1    1
    12     1     2    1
    13     2     3    1
    14     3     4    1
    15     4    25    1
    16    25    26    1
    17    26    27    1
    18    26    28    1
    19    28    29    1
    20    29    30   ar
    21    30    31    2
    22    30    32   ar
    23    32    33   ar
    24    33    34   ar
    25    34    35   ar
    26    35    36   ar
    27    36    37   ar
    28    37    38    1
    29    37    39   ar
    30    39    40   ar
    31     4     5    1
    32     5     6    1
    33     4     7    1
    34     7     8    1
    35    20    21   ar
    36    21    22   ar
    37    22    23    1
    38    23    13   am
    39    22    16   ar
    40     6     1    1
    41     8     1    1
    42    39    26    1
    43    40    29   ar
    44    40    34   ar
    45     9    10    1
    46    27    41    1
    47    23    24    1
@<TRIPOS>MOLECULE
*****
 41 47 0 0 0
SMALL
GASTEIGER

@<TRIPOS>ATOM
      1 C         144.2614  140.2597  157.6410 C.3     1  UNL1        0.0700
      2 C         144.7237  141.6766  157.4720 C.3     1  UNL1        0.0193
      3 C         144.5224  142.6684  158.5792 C.3     1  UNL1        0.0287
      4 C         143.8588  142.2431  159.8555 C.3     1  UNL1        0.0955
      5 C         143.3964  140.8262  160.0245 C.3     1  UNL1        0.0287
      6 C         143.5978  139.8345  158.9172 C.3     1  UNL1        0.0193
      7 O         143.9472  141.6640  159.2769 O.3     1  UNL1       -0.3571
      8 C         144.1292  140.7673  158.2758 C.3     1  UNL1        0.1562
      9 N         144.4627  139.2680  156.5338 N.3     1  UNL1       -0.2925
     10 H         145.1012  139.6988  155.8651 H       1  UNL1        0.1236
     11 C         143.2850  138.7705  155.7493 C.3     1  UNL1        0.1161
     12 O         144.9275  131.4337  157.8047 O.2     1  UNL1       -0.2707
     13 C         143.9970  132.4303  157.1793 C.2     1  UNL1        0.2718
     14 C         142.6837  131.9777  156.6136 C.3     1  UNL1        0.2898
     15 O         141.7531  132.9742  155.9881 O.3     1  UNL1       -0.4627
     16 C         142.1361  134.4233  155.9284 C.ar    1  UNL1        0.1716
     17 C         141.2056  135.4198  155.3030 C.ar    1  UNL1        0.0524
     18 C         141.5886  136.8689  155.2433 C.ar    1  UNL1        0.0757
     19 CL        140.6581  137.8654  154.6178 Cl      1  UNL1       -0.0809
     20 C         142.9021  137.3214  155.8090 C.ar    1  UNL1        0.0870
     21 N         143.8325  136.3249  156.4345 N.ar    1  UNL1       -0.2296
     22 C         143.4495  134.8758  156.4941 C.ar    1  UNL1        0.1683
     23 N         144.3800  133.8794  157.1196 N.am    1  UNL1       -0.2639
     24 H         145.2421  134.1764  157.4909 H       1  UNL1        0.1565
     25 C         143.6574  143.2348  160.9628 C.3     1  UNL1        0.0604
     26 C         142.2786  143.7297  161.2849 C.3     1  UNL1        0.1335
     27 O         142.2447  144.1052  159.8331 O.3     1  UNL1       -0.3806
     28 C         140.8926  144.3030  161.3036 C.3     1  UNL1        0.1402
     29 N         140.3581  144.1785  162.6996 N.ar    1  UNL1       -0.2915
     30 C         139.0466  144.5732  163.3112 C.ar    1  UNL1        0.2611
     31 O         137.9909  145.2235  162.4670 O.2     1  UNL1       -0.2670
     32 C         138.7908  144.3176  164.7669 C.ar    1  UNL1        0.0623
     33 C         139.8465  143.6673  165.6111 C.ar    1  UNL1        0.0254
     34 C         141.1580  143.2726  164.9995 C.ar    1  UNL1        0.0972
     35 N         142.3776  142.6163  165.5930 N.ar    1  UNL1       -0.2400
     36 C         143.6337  142.2784  164.8460 C.ar    1  UNL1        0.1282
     37 C         143.7452  142.5956  163.3842 C.ar    1  UNL1        0.1588
     38 F         145.0013  142.2578  162.6372 F       1  UNL1       -0.2027
     39 C         142.6007  143.2508  162.6694 C.ar    1  UNL1        0.0500
     40 C         141.4138  143.5281  163.5438 C.ar    1  UNL1        0.0806
     41 H         141.3898  144.5135  159.6246 H       1  UNL1        0.2108
@<TRIPOS>BOND
     1    12    13    2
     2    13    14    1
     3    14    15    1
     4    15    16    1
     5    16    17   ar
     6    17    18   ar
     7    18    19    1
     8    18    20   ar
     9    20    11    1
    10    11     9    1
    11     9     1    1
    12     1     2    1
    13     2     3    1
    14     3     4    1
    15     4    25    1
    16    25    26    1
    17    26    27    1
    18    26    28    1
    19    28    29    1
    20    29    30   ar
    21    30    31    2
    22    30    32   ar
    23    32    33   ar
    24    33    34   ar
    25    34    35   ar
    26    35    36   ar
    27    36    37   ar
    28    37    38    1
    29    37    39   ar
    30    39    40   ar
    31     4     5    1
    32     5     6    1
    33     4     7    1
    34     7     8    1
    35    20    21   ar
    36    21    22   ar
    37    22    23    1
    38    23    13   am
    39    22    16   ar
    40     6     1    1
    41     8     1    1
    42    39    26    1
    43    40    29   ar
    44    40    34   ar
    45     9    10    1
    46    27    41    1
    47    23    24    1
@<TRIPOS>MOLECULE
*****
 41 47 0 0 0
SMALL
GASTEIGER

@<TRIPOS>ATOM
      1 C         143.1931  144.2756  163.4649 C.3     1  UNL1        0.0700
      2 C         141.9745  145.1377  163.6126 C.3     1  UNL1        0.0193
      3 C         141.0701  145.3656  162.4378 C.3     1  UNL1        0.0287
      4 C         141.3843  144.7312  161.1152 C.3     1  UNL1        0.0955
      5 C         142.6029  143.8691  160.9676 C.3     1  UNL1        0.0287
      6 C         143.5072  143.6413  162.1425 C.3     1  UNL1        0.0193
      7 O         141.9096  144.5774  161.7304 O.3     1  UNL1       -0.3571
      8 C         142.7273  144.3714  162.7926 C.3     1  UNL1        0.1562
      9 N         144.0975  144.0478  164.6397 N.3     1  UNL1       -0.2925
     10 H         145.0395  144.2978  164.3390 H       1  UNL1        0.1236
     11 C         144.1889  142.6864  165.2628 C.3     1  UNL1        0.1161
     12 O         140.4157  142.2026  172.0658 O.2     1  UNL1       -0.2707
     13 C         140.5327  141.8353  170.6161 C.2     1  UNL1        0.2718
     14 C         139.5088  140.9394  169.9846 C.3     1  UNL1        0.2898
     15 O         139.6256  140.5720  168.5349 O.3     1  UNL1       -0.4627
     16 C         140.7664  141.1006  167.7169 C.ar    1  UNL1        0.1716
     17 C         140.8833  140.7333  166.2673 C.ar    1  UNL1        0.0524
     18 C         142.0242  141.2619  165.4493 C.ar    1  UNL1        0.0757
     19 CL        142.1410  140.8946  163.9996 Cl      1  UNL1       -0.0809
     20 C         143.0481  142.1578  166.0809 C.ar    1  UNL1        0.0870
     21 N         142.9312  142.5251  167.5305 N.ar    1  UNL1       -0.2296
     22 C         141.7903  141.9965  168.3485 C.ar    1  UNL1        0.1683
     23 N         141.6735  142.3639  169.7981 N.am    1  UNL1       -0.2639
     24 H         142.3455  142.9519  170.2126 H       1  UNL1        0.1565
     25 C         140.4799  144.9591  159.9404 C.3     1  UNL1        0.0604
     26 C         139.6172  143.8429  159.4305 C.3     1  UNL1        0.1335
     27 O         139.2104  143.7111  160.8682 O.3     1  UNL1       -0.3806
     28 C         138.6695  142.6993  159.2211 C.3     1  UNL1        0.1402
     29 N         138.6709  142.3576  157.7605 N.ar    1  UNL1       -0.2915
     30 C         137.9309  141.3178  156.9723 C.ar    1  UNL1        0.2611
     31 O         136.9823  140.3853  157.6656 O.2     1  UNL1       -0.2670
     32 C         138.1396  141.2105  155.4908 C.ar    1  UNL1        0.0623
     33 C         139.0881  142.1430  154.7975 C.ar    1  UNL1        0.0254
     34 C         139.8281  143.1828  155.5857 C.ar    1  UNL1        0.0972
     35 N         140.8231  144.2327  155.1640 N.ar    1  UNL1       -0.2400
     36 C         141.4892  145.2170  156.0791 C.ar    1  UNL1        0.1282
     37 C         141.1798  145.2047  157.5468 C.ar    1  UNL1        0.1588
     38 F         141.8458  146.1889  158.4620 F       1  UNL1       -0.2027
     39 C         140.2043  144.2080  158.0993 C.ar    1  UNL1        0.0500
     40 C         139.6194  143.2901  157.0672 C.ar    1  UNL1        0.0806
     41 H         138.5678  142.9901  160.9577 H       1  UNL1        0.2108
@<TRIPOS>BOND
     1    12    13    2
     2    13    14    1
     3    14    15    1
     4    15    16    1
     5    16    17   ar
     6    17    18   ar
     7    18    19    1
     8    18    20   ar
     9    20    11    1
    10    11     9    1
    11     9     1    1
    12     1     2    1
    13     2     3    1
    14     3     4    1
    15     4    25    1
    16    25    26    1
    17    26    27    1
    18    26    28    1
    19    28    29    1
    20    29    30   ar
    21    30    31    2
    22    30    32   ar
    23    32    33   ar
    24    33    34   ar
    25    34    35   ar
    26    35    36   ar
    27    36    37   ar
    28    37    38    1
    29    37    39   ar
    30    39    40   ar
    31     4     5    1
    32     5     6    1
    33     4     7    1
    34     7     8    1
    35    20    21   ar
    36    21    22   ar
    37    22    23    1
    38    23    13   am
    39    22    16   ar
    40     6     1    1
    41     8     1    1
    42    39    26    1
    43    40    29   ar
    44    40    34   ar
    45     9    10    1
    46    27    41    1
    47    23    24    1
@<TRIPOS>MOLECULE
*****
 41 47 0 0 0
SMALL
GASTEIGER

@<TRIPOS>ATOM
      1 C         137.6742  139.4307  161.3090 C.3     1  UNL1        0.0700
      2 C         138.3269  138.0885  161.4596 C.3     1  UNL1        0.0193
      3 C         139.0550  137.7465  162.7257 C.3     1  UNL1        0.0287
      4 C         139.1305  138.7466  163.8411 C.3     1  UNL1        0.0955
      5 C         138.4778  140.0887  163.6905 C.3     1  UNL1        0.0287
      6 C         137.7497  140.4307  162.4244 C.3     1  UNL1        0.0193
      7 O         138.7203  138.9795  163.1662 O.3     1  UNL1       -0.3571
      8 C         138.0620  139.2887  162.0215 C.3     1  UNL1        0.1562
      9 N         136.9461  139.7727  160.0430 N.3     1  UNL1       -0.2925
     10 H         136.6079  138.8938  159.6511 H       1  UNL1        0.1236
     11 C         137.6606  140.4930  158.9382 C.3     1  UNL1        0.1161
     12 O         143.6777  144.4691  161.8938 O.2     1  UNL1       -0.2707
     13 C         143.1496  143.3841  161.0026 C.2     1  UNL1        0.2718
     14 C         144.0991  142.5397  160.2056 C.3     1  UNL1        0.2898
     15 O         143.5711  141.4548  159.3145 O.3     1  UNL1       -0.4627
     16 C         142.0935  141.2143  159.2204 C.ar    1  UNL1        0.1716
     17 C         141.5654  140.1294  158.3293 C.ar    1  UNL1        0.0524
     18 C         140.0877  139.8890  158.2352 C.ar    1  UNL1        0.0757
     19 CL        139.5597  138.8040  157.3441 Cl      1  UNL1       -0.0809
     20 C         139.1382  140.7335  159.0323 C.ar    1  UNL1        0.0870
     21 N         139.6663  141.8184  159.9234 N.ar    1  UNL1       -0.2296
     22 C         141.1439  142.0588  160.0174 C.ar    1  UNL1        0.1683
     23 N         141.6720  143.1437  160.9086 N.am    1  UNL1       -0.2639
     24 H         141.0487  143.6979  161.4317 H       1  UNL1        0.1565
     25 C         139.8586  138.4045  165.1072 C.3     1  UNL1        0.0604
     26 C         139.3339  138.8855  166.4275 C.3     1  UNL1        0.1335
     27 O         138.1533  138.0220  166.0948 O.3     1  UNL1       -0.3806
     28 C         138.5624  139.1859  167.6783 C.3     1  UNL1        0.1402
     29 N         139.3758  140.1345  168.5081 N.ar    1  UNL1       -0.2915
     30 C         139.1208  140.7749  169.8403 C.ar    1  UNL1        0.2611
     31 O         137.8466  140.4891  170.5783 O.2     1  UNL1       -0.2670
     32 C         140.1401  141.7011  170.4345 C.ar    1  UNL1        0.0623
     33 C         141.4144  141.9869  169.6966 C.ar    1  UNL1        0.0254
     34 C         141.6693  141.3465  168.3644 C.ar    1  UNL1        0.0972
     35 N         142.8361  141.4479  167.4164 N.ar    1  UNL1       -0.2400
     36 C         142.9513  140.7378  166.1001 C.ar    1  UNL1        0.1282
     37 C         141.8453  139.8380  165.6341 C.ar    1  UNL1        0.1588
     38 F         141.9605  139.1280  164.3179 F       1  UNL1       -0.2027
     39 C         140.6241  139.6484  166.4843 C.ar    1  UNL1        0.0500
     40 C         140.6501  140.4203  167.7702 C.ar    1  UNL1        0.0806
     41 H         137.5015  138.0755  166.8111 H       1  UNL1        0.2108
@<TRIPOS>BOND
     1    12    13    2
     2    13    14    1
     3    14    15    1
     4    15    16    1
     5    16    17   ar
     6    17    18   ar
     7    18    19    1
     8    18    20   ar
     9    20    11    1
    10    11     9    1
    11     9     1    1
    12     1     2    1
    13     2     3    1
    14     3     4    1
    15     4    25    1
    16    25    26    1
    17    26    27    1
    18    26    28    1
    19    28    29    1
    20    29    30   ar
    21    30    31    2
    22    30    32   ar
    23    32    33   ar
    24    33    34   ar
    25    34    35   ar
    26    35    36   ar
    27    36    37   ar
    28    37    38    1
    29    37    39   ar
    30    39    40   ar
    31     4     5    1
    32     5     6    1
    33     4     7    1
    34     7     8    1
    35    20    21   ar
    36    21    22   ar
    37    22    23    1
    38    23    13   am
    39    22    16   ar
    40     6     1    1
    41     8     1    1
    42    39    26    1
    43    40    29   ar
    44    40    34   ar
    45     9    10    1
    46    27    41    1
    47    23    24    1
@<TRIPOS>MOLECULE
*****
 41 47 0 0 0
SMALL
GASTEIGER

@<TRIPOS>ATOM
      1 C         144.8279  140.8293  162.9920 C.3     1  UNL1        0.0700
      2 C         144.3817  141.2251  161.6157 C.3     1  UNL1        0.0193
      3 C         143.4377  140.3451  160.8512 C.3     1  UNL1        0.0287
      4 C         142.9398  139.0692  161.4631 C.3     1  UNL1        0.0955
      5 C         143.3860  138.6734  162.8395 C.3     1  UNL1        0.0287
      6 C         144.3300  139.5535  163.6039 C.3     1  UNL1        0.0193
      7 O         143.4560  139.5189  161.9206 O.3     1  UNL1       -0.3571
      8 C         144.3096  140.3146  162.6118 C.3     1  UNL1        0.1562
      9 N         145.7719  141.7093  163.7565 N.3     1  UNL1       -0.2925
     10 H         146.2741  141.1064  164.4082 H       1  UNL1        0.1236
     11 C         145.2415  142.8631  164.5548 C.3     1  UNL1        0.1161
     12 O         139.4243  146.7659  161.1373 O.2     1  UNL1       -0.2707
     13 C         139.9091  145.8245  162.1998 C.2     1  UNL1        0.2718
     14 C         138.9397  145.2427  163.1854 C.3     1  UNL1        0.2898
     15 O         139.4244  144.3013  164.2479 O.3     1  UNL1       -0.4627
     16 C         140.8787  143.9417  164.3246 C.ar    1  UNL1        0.1716
     17 C         141.3635  143.0004  165.3871 C.ar    1  UNL1        0.0524
     18 C         142.8178  142.6409  165.4637 C.ar    1  UNL1        0.0757
     19 CL        143.3025  141.6994  166.5263 Cl      1  UNL1       -0.0809
     20 C         143.7872  143.2227  164.4780 C.ar    1  UNL1        0.0870
     21 N         143.3024  144.1640  163.4156 N.ar    1  UNL1       -0.2296
     22 C         141.8481  144.5236  163.3389 C.ar    1  UNL1        0.1683
     23 N         141.3634  145.4649  162.2765 N.am    1  UNL1       -0.2639
     24 H         141.9997  145.8468  161.6295 H       1  UNL1        0.1565
     25 C         141.9958  138.1892  160.6987 C.3     1  UNL1        0.0604
     26 C         142.2428  137.9075  159.2463 C.3     1  UNL1        0.1335
     27 O         143.5218  137.3014  159.7433 O.3     1  UNL1       -0.3806
     28 C         142.7572  137.4991  157.8977 C.3     1  UNL1        0.1402
     29 N         141.7446  137.9115  156.8709 N.ar    1  UNL1       -0.2915
     30 C         141.7135  137.7688  155.3780 C.ar    1  UNL1        0.2611
     31 O         142.8537  137.1054  154.6641 O.2     1  UNL1       -0.2670
     32 C         140.5421  138.2895  154.5991 C.ar    1  UNL1        0.0623
     33 C         139.4018  138.9528  155.3130 C.ar    1  UNL1        0.0254
     34 C         139.4329  139.0956  156.8059 C.ar    1  UNL1        0.0972
     35 N         138.4484  139.7053  157.7699 N.ar    1  UNL1       -0.2400
     36 C         138.6188  139.7758  159.2585 C.ar    1  UNL1        0.1282
     37 C         139.8508  139.2093  159.9000 C.ar    1  UNL1        0.1588
     38 F         140.0212  139.2798  161.3886 F       1  UNL1       -0.2027
     39 C         140.9122  138.5724  159.0528 C.ar    1  UNL1        0.0500
     40 C         140.6043  138.5749  157.5848 C.ar    1  UNL1        0.0806
     41 H         144.0308  136.9593  158.9918 H       1  UNL1        0.2108
@<TRIPOS>BOND
     1    12    13    2
     2    13    14    1
     3    14    15    1
     4    15    16    1
     5    16    17   ar
     6    17    18   ar
     7    18    19    1
     8    18    20   ar
     9    20    11    1
    10    11     9    1
    11     9     1    1
    12     1     2    1
    13     2     3    1
    14     3     4    1
    15     4    25    1
    16    25    26    1
    17    26    27    1
    18    26    28    1
    19    28    29    1
    20    29    30   ar
    21    30    31    2
    22    30    32   ar
    23    32    33   ar
    24    33    34   ar
    25    34    35   ar
    26    35    36   ar
    27    36    37   ar
    28    37    38    1
    29    37    39   ar
    30    39    40   ar
    31     4     5    1
    32     5     6    1
    33     4     7    1
    34     7     8    1
    35    20    21   ar
    36    21    22   ar
    37    22    23    1
    38    23    13   am
    39    22    16   ar
    40     6     1    1
    41     8     1    1
    42    39    26    1
    43    40    29   ar
    44    40    34   ar
    45     9    10    1
    46    27    41    1
    47    23    24    1
@<TRIPOS>MOLECULE
*****
 41 47 0 0 0
SMALL
GASTEIGER

@<TRIPOS>ATOM
      1 C         139.0230  139.5446  162.7423 C.3     1  UNL1        0.0700
      2 C         140.0225  140.5725  162.3015 C.3     1  UNL1        0.0193
      3 C         140.6206  140.4965  160.9280 C.3     1  UNL1        0.0287
      4 C         140.2191  139.3924  159.9952 C.3     1  UNL1        0.0955
      5 C         139.2195  138.3645  160.4360 C.3     1  UNL1        0.0287
      6 C         138.6215  138.4407  161.8095 C.3     1  UNL1        0.0193
      7 O         139.8642  139.3927  160.7382 O.3     1  UNL1       -0.3571
      8 C         139.3234  139.4615  161.9801 C.3     1  UNL1        0.1562
      9 N         138.4249  139.6207  164.1158 N.3     1  UNL1       -0.2925
     10 H         138.5624  140.5765  164.4443 H       1  UNL1        0.1236
     11 C         138.9227  138.7136  165.2017 C.3     1  UNL1        0.1161
     12 O         140.3500  142.1337  172.0586 O.2     1  UNL1       -0.2707
     13 C         140.8494  141.5069  170.7906 C.2     1  UNL1        0.2718
     14 C         142.3240  141.3935  170.5403 C.3     1  UNL1        0.2898
     15 O         142.8235  140.7668  169.2723 O.3     1  UNL1       -0.4627
     16 C         141.8483  140.2535  168.2546 C.ar    1  UNL1        0.1716
     17 C         142.3477  139.6268  166.9867 C.ar    1  UNL1        0.0524
     18 C         141.3724  139.1135  165.9691 C.ar    1  UNL1        0.0757
     19 CL        141.8720  138.4867  164.7010 Cl      1  UNL1       -0.0809
     20 C         139.8979  139.2269  166.2194 C.ar    1  UNL1        0.0870
     21 N         139.3985  139.8537  167.4874 N.ar    1  UNL1       -0.2296
     22 C         140.3737  140.3670  168.5050 C.ar    1  UNL1        0.1683
     23 N         139.8742  140.9937  169.7730 N.am    1  UNL1       -0.2639
     24 H         138.9064  141.0681  169.9373 H       1  UNL1        0.1565
     25 C         140.8171  139.3164  158.6217 C.3     1  UNL1        0.0604
     26 C         141.6381  138.1250  158.2261 C.3     1  UNL1        0.1335
     27 O         142.4232  138.4532  159.4613 O.3     1  UNL1       -0.3806
     28 C         142.6232  137.0022  158.0887 C.3     1  UNL1        0.1402
     29 N         142.2754  136.2291  156.8512 N.ar    1  UNL1       -0.2915
     30 C         142.8964  135.0212  156.2146 C.ar    1  UNL1        0.2611
     31 O         144.0965  134.3762  156.8421 O.2     1  UNL1       -0.2670
     32 C         142.3172  134.4582  154.9507 C.ar    1  UNL1        0.0623
     33 C         141.1171  135.1032  154.3233 C.ar    1  UNL1        0.0254
     34 C         140.4961  136.3111  154.9598 C.ar    1  UNL1        0.0972
     35 N         139.3096  137.1497  154.5605 N.ar    1  UNL1       -0.2400
     36 C         138.7994  138.3461  155.3077 C.ar    1  UNL1        0.1282
     37 C         139.4853  138.7941  156.5642 C.ar    1  UNL1        0.1588
     38 F         138.9751  139.9905  157.3114 F       1  UNL1       -0.2027
     39 C         140.6814  138.0458  157.0735 C.ar    1  UNL1        0.0500
     40 C         141.0752  136.8741  156.2238 C.ar    1  UNL1        0.0806
     41 H         143.1461  137.8146  159.5642 H       1  UNL1        0.2108
@<TRIPOS>BOND
     1    12    13    2
     2    13    14    1
     3    14    15    1
     4    15    16    1
     5    16    17   ar
     6    17    18   ar
     7    18    19    1
     8    18    20   ar
     9    20    11    1
    10    11     9    1
    11     9     1    1
    12     1     2    1
    13     2     3    1
    14     3     4    1
    15     4    25    1
    16    25    26    1
    17    26    27    1
    18    26    28    1
    19    28    29    1
    20    29    30   ar
    21    30    31    2
    22    30    32   ar
    23    32    33   ar
    24    33    34   ar
    25    34    35   ar
    26    35    36   ar
    27    36    37   ar
    28    37    38    1
    29    37    39   ar
    30    39    40   ar
    31     4     5    1
    32     5     6    1
    33     4     7    1
    34     7     8    1
    35    20    21   ar
    36    21    22   ar
    37    22    23    1
    38    23    13   am
    39    22    16   ar
    40     6     1    1
    41     8     1    1
    42    39    26    1
    43    40    29   ar
    44    40    34   ar
    45     9    10    1
    46    27    41    1
    47    23    24    1
