@<TRIPOS>MOLECULE
*****
 32 35 0 0 0
SMALL
GASTEIGER

@<TRIPOS>ATOM
      1 C         141.9386  145.3001  158.4739 C.ar    1  UNL1        0.2181
      2 N         142.9103  144.1742  158.2794 N.ar    1  UNL1       -0.1986
      3 C         143.2367  143.2593  159.4224 C.ar    1  UNL1        0.1388
      4 C         142.5913  143.4704  160.7599 C.ar    1  UNL1        0.0786
      5 S         142.7164  142.7359  162.0618 S.2     1  UNL1       -0.0826
      6 C         141.8220  143.4081  163.0609 C.ar    1  UNL1        0.0311
      7 C         141.1440  144.5578  162.3765 C.ar    1  UNL1        0.0263
      8 C         141.6195  144.5964  160.9544 C.ar    1  UNL1        0.0933
      9 N         141.2932  145.5112  159.8114 N.ar    1  UNL1       -0.2132
     10 C         141.6378  143.0017  164.4930 C.ar    1  UNL1        0.0061
     11 C         140.3580  143.3248  165.2056 C.ar    1  UNL1        0.0018
     12 C         140.1739  142.9184  166.6378 C.ar    1  UNL1        0.0145
     13 C         141.2694  142.1890  167.3573 C.ar    1  UNL1        0.0480
     14 C         142.5492  141.8660  166.6447 C.ar    1  UNL1        0.0145
     15 C         142.7333  142.2724  165.2126 C.ar    1  UNL1        0.0018
     16 N         141.0852  141.7827  168.7894 N.pl3   1  UNL1       -0.3028
     17 C         141.7918  142.5335  169.8789 C.3     1  UNL1        0.1231
     18 C         141.6076  142.1272  171.3110 C.3     1  UNL1        0.1636
     19 O         140.7167  140.9700  171.6536 O.3     1  UNL1       -0.3501
     20 C         140.0101  140.2193  170.5641 C.3     1  UNL1        0.1636
     21 C         140.1944  140.6256  169.1320 C.3     1  UNL1        0.1231
     22 C         140.2536  146.1678  156.6969 C.3     1  UNL1        0.1108
     23 N         141.6122  146.2151  157.3309 N.pl3   1  UNL1       -0.3013
     24 H         142.2896  146.8465  156.9968 H       1  UNL1        0.1497
     25 N         144.2085  142.1333  159.2279 N.pl3   1  UNL1       -0.3176
     26 H         145.1668  142.2740  159.4045 H       1  UNL1        0.1482
     27 C         143.7203  140.7929  158.7643 C.3     1  UNL1        0.0896
     28 C         143.1898  139.8030  159.7586 C.3     1  UNL1        0.0385
     29 C         144.0999  139.2276  160.8029 C.3     1  UNL1        0.0739
     30 N         143.5536  138.8480  162.1473 N.3     1  UNL1       -0.2703
     31 C         142.3149  138.0075  162.2434 C.3     1  UNL1        0.0897
     32 C         144.2459  139.3090  163.3955 C.3     1  UNL1        0.0897
@<TRIPOS>BOND
     1    22    23    1
     2    23     1    1
     3     1     2   ar
     4     2     3   ar
     5     3    25    1
     6    25    27    1
     7    27    28    1
     8    28    29    1
     9    29    30    1
    10    30    31    1
    11    30    32    1
    12     3     4   ar
    13     4     5   ar
    14     5     6   ar
    15     6    10    1
    16    10    11   ar
    17    11    12   ar
    18    12    13   ar
    19    13    16    1
    20    16    17    1
    21    17    18    1
    22    18    19    1
    23    19    20    1
    24    20    21    1
    25    13    14   ar
    26    14    15   ar
    27     6     7   ar
    28     7     8   ar
    29     8     9   ar
    30     9     1   ar
    31     8     4   ar
    32    15    10   ar
    33    21    16    1
    34    23    24    1
    35    25    26    1
@<TRIPOS>MOLECULE
*****
 32 35 0 0 0
SMALL
GASTEIGER

@<TRIPOS>ATOM
      1 C         141.1388  145.4228  158.2805 C.ar    1  UNL1        0.2181
      2 N         139.9533  144.5142  158.1434 N.ar    1  UNL1       -0.1986
      3 C         139.5232  143.6625  159.3009 C.ar    1  UNL1        0.1388
      4 C         140.2787  143.7195  160.5954 C.ar    1  UNL1        0.0786
      5 S         140.0910  143.0024  161.8994 S.2     1  UNL1       -0.0826
      6 C         141.1606  143.4678  162.8425 C.ar    1  UNL1        0.0311
      7 C         142.0094  144.4726  162.1213 C.ar    1  UNL1        0.0263
      8 C         141.4643  144.6282  160.7325 C.ar    1  UNL1        0.0933
      9 N         141.8943  145.4798  159.5750 N.ar    1  UNL1       -0.2132
     10 C         141.3486  143.0090  164.2582 C.ar    1  UNL1        0.0061
     11 C         142.7252  142.7086  164.7727 C.ar    1  UNL1        0.0018
     12 C         142.9130  142.2498  166.1885 C.ar    1  UNL1        0.0145
     13 C         141.7244  142.0914  167.0896 C.ar    1  UNL1        0.0480
     14 C         140.3478  142.3919  166.5750 C.ar    1  UNL1        0.0145
     15 C         140.1600  142.8507  165.1593 C.ar    1  UNL1        0.0018
     16 N         141.9123  141.6326  168.5053 N.pl3   1  UNL1       -0.3028
     17 C         142.3976  140.2410  168.7846 C.3     1  UNL1        0.1231
     18 C         142.5855  139.7823  170.2003 C.3     1  UNL1        0.1636
     19 O         142.2881  140.7152  171.3367 O.3     1  UNL1       -0.3501
     20 C         141.8029  142.1067  171.0573 C.3     1  UNL1        0.1636
     21 C         141.6150  142.5655  169.6416 C.3     1  UNL1        0.1231
     22 C         140.7554  146.2937  155.8629 C.3     1  UNL1        0.1108
     23 N         141.5689  146.2745  157.1230 N.pl3   1  UNL1       -0.3013
     24 H         142.3851  146.8210  157.1904 H       1  UNL1        0.1497
     25 N         138.3376  142.7539  159.1637 N.pl3   1  UNL1       -0.3176
     26 H         137.4347  143.0882  159.3693 H       1  UNL1        0.1482
     27 C         138.5276  141.3358  158.7132 C.3     1  UNL1        0.0896
     28 C         138.4445  140.2156  159.7073 C.3     1  UNL1        0.0385
     29 C         137.6261  140.3783  160.9539 C.3     1  UNL1        0.0739
     30 N         137.9543  139.5743  162.1769 N.3     1  UNL1       -0.2703
     31 C         138.2420  138.1072  162.0551 C.3     1  UNL1        0.0897
     32 C         137.9949  140.2374  163.5217 C.3     1  UNL1        0.0897
@<TRIPOS>BOND
     1    22    23    1
     2    23     1    1
     3     1     2   ar
     4     2     3   ar
     5     3    25    1
     6    25    27    1
     7    27    28    1
     8    28    29    1
     9    29    30    1
    10    30    31    1
    11    30    32    1
    12     3     4   ar
    13     4     5   ar
    14     5     6   ar
    15     6    10    1
    16    10    11   ar
    17    11    12   ar
    18    12    13   ar
    19    13    16    1
    20    16    17    1
    21    17    18    1
    22    18    19    1
    23    19    20    1
    24    20    21    1
    25    13    14   ar
    26    14    15   ar
    27     6     7   ar
    28     7     8   ar
    29     8     9   ar
    30     9     1   ar
    31     8     4   ar
    32    15    10   ar
    33    21    16    1
    34    23    24    1
    35    25    26    1
@<TRIPOS>MOLECULE
*****
 32 35 0 0 0
SMALL
GASTEIGER

@<TRIPOS>ATOM
      1 C         141.9644  145.3039  158.3298 C.ar    1  UNL1        0.2181
      2 N         142.8924  144.1535  158.0749 N.ar    1  UNL1       -0.1986
      3 C         143.2736  143.2343  159.1973 C.ar    1  UNL1        0.1388
      4 C         142.7265  143.4656  160.5747 C.ar    1  UNL1        0.0786
      5 S         142.9223  142.7324  161.8686 S.2     1  UNL1       -0.0826
      6 C         142.1151  143.4297  162.9232 C.ar    1  UNL1        0.0311
      7 C         141.4205  144.5939  162.2811 C.ar    1  UNL1        0.0263
      8 C         141.7984  144.6161  160.8297 C.ar    1  UNL1        0.0933
      9 N         141.4173  145.5352  159.7072 N.ar    1  UNL1       -0.2132
     10 C         142.0193  143.0326  164.3665 C.ar    1  UNL1        0.0061
     11 C         143.2498  142.6047  165.1099 C.ar    1  UNL1        0.0018
     12 C         143.1539  142.2076  166.5532 C.ar    1  UNL1        0.0145
     13 C         141.8275  142.2383  167.2531 C.ar    1  UNL1        0.0480
     14 C         140.5970  142.6662  166.5097 C.ar    1  UNL1        0.0145
     15 C         140.6929  143.0633  165.0663 C.ar    1  UNL1        0.0018
     16 N         141.7317  141.8412  168.6964 N.pl3   1  UNL1       -0.3028
     17 C         140.7102  142.4862  169.5855 C.3     1  UNL1        0.1231
     18 C         140.6144  142.0891  171.0288 C.3     1  UNL1        0.1636
     19 O         141.5402  141.0469  171.5829 O.3     1  UNL1       -0.3501
     20 C         142.5616  140.4020  170.6938 C.3     1  UNL1        0.1636
     21 C         142.6574  140.7991  169.2505 C.3     1  UNL1        0.1231
     22 C         140.1685  146.2527  156.7098 C.3     1  UNL1        0.1108
     23 N         141.5832  146.2232  157.2074 N.pl3   1  UNL1       -0.3013
     24 H         142.2616  146.8070  156.7973 H       1  UNL1        0.1497
     25 N         144.2017  142.0838  158.9423 N.pl3   1  UNL1       -0.3176
     26 H         144.7595  141.7302  159.6724 H       1  UNL1        0.1482
     27 C         144.2799  141.4721  157.5749 C.3     1  UNL1        0.0896
     28 C         145.6073  141.3335  156.8902 C.3     1  UNL1        0.0385
     29 C         146.5089  142.5245  156.7540 C.3     1  UNL1        0.0739
     30 N         147.4595  142.6174  155.5973 N.3     1  UNL1       -0.2703
     31 C         148.6951  141.7674  155.5719 C.3     1  UNL1        0.0897
     32 C         147.1743  143.5603  154.4661 C.3     1  UNL1        0.0897
@<TRIPOS>BOND
     1    22    23    1
     2    23     1    1
     3     1     2   ar
     4     2     3   ar
     5     3    25    1
     6    25    27    1
     7    27    28    1
     8    28    29    1
     9    29    30    1
    10    30    31    1
    11    30    32    1
    12     3     4   ar
    13     4     5   ar
    14     5     6   ar
    15     6    10    1
    16    10    11   ar
    17    11    12   ar
    18    12    13   ar
    19    13    16    1
    20    16    17    1
    21    17    18    1
    22    18    19    1
    23    19    20    1
    24    20    21    1
    25    13    14   ar
    26    14    15   ar
    27     6     7   ar
    28     7     8   ar
    29     8     9   ar
    30     9     1   ar
    31     8     4   ar
    32    15    10   ar
    33    21    16    1
    34    23    24    1
    35    25    26    1
@<TRIPOS>MOLECULE
*****
 32 35 0 0 0
SMALL
GASTEIGER

@<TRIPOS>ATOM
      1 C         141.5285  145.4445  158.4884 C.ar    1  UNL1        0.2181
      2 N         142.6294  144.4452  158.2903 N.ar    1  UNL1       -0.1986
      3 C         143.0606  143.5688  159.4289 C.ar    1  UNL1        0.1388
      4 C         142.3909  143.6919  160.7654 C.ar    1  UNL1        0.0786
      5 S         142.6001  142.9695  162.0632 S.2     1  UNL1       -0.0826
      6 C         141.6285  143.5224  163.0633 C.ar    1  UNL1        0.0311
      7 C         140.8188  144.5866  162.3836 C.ar    1  UNL1        0.0263
      8 C         141.2900  144.6913  160.9634 C.ar    1  UNL1        0.0933
      9 N         140.8588  145.5676  159.8249 N.ar    1  UNL1       -0.2132
     10 C         141.4908  143.0876  164.4923 C.ar    1  UNL1        0.0061
     11 C         142.6624  142.4846  165.2090 C.ar    1  UNL1        0.0018
     12 C         142.5246  142.0498  166.6380 C.ar    1  UNL1        0.0145
     13 C         141.2152  142.2179  167.3502 C.ar    1  UNL1        0.0480
     14 C         140.0436  142.8209  166.6335 C.ar    1  UNL1        0.0145
     15 C         140.1814  143.2558  165.2045 C.ar    1  UNL1        0.0018
     16 N         141.0775  141.7831  168.7792 N.pl3   1  UNL1       -0.3028
     17 C         140.1541  140.6556  169.1344 C.3     1  UNL1        0.1231
     18 C         140.0164  140.2208  170.5634 C.3     1  UNL1        0.1636
     19 O         140.8021  140.9135  171.6371 O.3     1  UNL1       -0.3501
     20 C         141.7254  142.0409  171.2819 C.3     1  UNL1        0.1636
     21 C         141.8631  142.4758  169.8529 C.3     1  UNL1        0.1231
     22 C         140.7102  145.7080  156.0367 C.3     1  UNL1        0.1108
     23 N         141.0973  146.3209  157.3499 N.pl3   1  UNL1       -0.3013
     24 H         141.0683  147.2982  157.4645 H       1  UNL1        0.1497
     25 N         144.1616  142.5694  159.2308 N.pl3   1  UNL1       -0.3176
     26 H         144.6269  142.1886  160.0103 H       1  UNL1        0.1482
     27 C         144.5536  142.1503  157.8449 C.3     1  UNL1        0.0896
     28 C         144.5534  140.6972  157.4727 C.3     1  UNL1        0.0385
     29 C         143.3645  139.8408  157.7939 C.3     1  UNL1        0.0739
     30 N         142.8844  139.7247  159.2103 N.3     1  UNL1       -0.2703
     31 C         143.7955  139.1770  160.2685 C.3     1  UNL1        0.0897
     32 C         141.4932  140.1563  159.5683 C.3     1  UNL1        0.0897
@<TRIPOS>BOND
     1    22    23    1
     2    23     1    1
     3     1     2   ar
     4     2     3   ar
     5     3    25    1
     6    25    27    1
     7    27    28    1
     8    28    29    1
     9    29    30    1
    10    30    31    1
    11    30    32    1
    12     3     4   ar
    13     4     5   ar
    14     5     6   ar
    15     6    10    1
    16    10    11   ar
    17    11    12   ar
    18    12    13   ar
    19    13    16    1
    20    16    17    1
    21    17    18    1
    22    18    19    1
    23    19    20    1
    24    20    21    1
    25    13    14   ar
    26    14    15   ar
    27     6     7   ar
    28     7     8   ar
    29     8     9   ar
    30     9     1   ar
    31     8     4   ar
    32    15    10   ar
    33    21    16    1
    34    23    24    1
    35    25    26    1
@<TRIPOS>MOLECULE
*****
 32 35 0 0 0
SMALL
GASTEIGER

@<TRIPOS>ATOM
      1 C         144.5415  142.8743  158.4578 C.ar    1  UNL1        0.2181
      2 N         143.2056  143.5012  158.1888 N.ar    1  UNL1       -0.1986
      3 C         142.2340  143.7078  159.3127 C.ar    1  UNL1        0.1388
      4 C         142.5983  143.2876  160.7058 C.ar    1  UNL1        0.0786
      5 S         141.8520  143.3640  162.0047 S.2     1  UNL1       -0.0826
      6 C         142.7267  142.7844  163.0766 C.ar    1  UNL1        0.0311
      7 C         144.0136  142.3497  162.4401 C.ar    1  UNL1        0.0263
      8 C         143.9342  142.6607  160.9749 C.ar    1  UNL1        0.0933
      9 N         144.9058  142.4541  159.8509 N.ar    1  UNL1       -0.2132
     10 C         142.3761  142.6610  164.5298 C.ar    1  UNL1        0.0061
     11 C         140.9534  142.8275  164.9749 C.ar    1  UNL1        0.0018
     12 C         140.6029  142.7041  166.4282 C.ar    1  UNL1        0.0145
     13 C         141.6750  142.4143  167.4363 C.ar    1  UNL1        0.0480
     14 C         143.0978  142.2478  166.9913 C.ar    1  UNL1        0.0145
     15 C         143.4483  142.3712  165.5380 C.ar    1  UNL1        0.0018
     16 N         141.3244  142.2910  168.8896 N.pl3   1  UNL1       -0.3028
     17 C         140.2234  143.1286  169.4692 C.3     1  UNL1        0.1231
     18 C         139.8728  143.0053  170.9224 C.3     1  UNL1        0.1636
     19 O         140.6234  142.0442  171.7960 O.3     1  UNL1       -0.3501
     20 C         141.7243  141.2066  171.2163 C.3     1  UNL1        0.1636
     21 C         142.0749  141.3299  169.7631 C.3     1  UNL1        0.1231
     22 C         146.9689  142.9669  157.5365 C.3     1  UNL1        0.1108
     23 N         145.5131  142.6677  157.3339 N.pl3   1  UNL1       -0.3013
     24 H         145.1953  142.3356  156.4632 H       1  UNL1        0.1497
     25 N         140.8981  144.3347  159.0436 N.pl3   1  UNL1       -0.3176
     26 H         140.3874  144.7409  159.7808 H       1  UNL1        0.1482
     27 C         140.3403  144.3428  157.6512 C.3     1  UNL1        0.0896
     28 C         139.4000  143.2590  157.2137 C.3     1  UNL1        0.0385
     29 C         138.3944  142.7039  158.1784 C.3     1  UNL1        0.0739
     30 N         138.8554  141.9989  159.4196 N.3     1  UNL1       -0.2703
     31 C         138.3466  142.4337  160.7620 C.3     1  UNL1        0.0897
     32 C         139.8251  140.8590  159.3182 C.3     1  UNL1        0.0897
@<TRIPOS>BOND
     1    22    23    1
     2    23     1    1
     3     1     2   ar
     4     2     3   ar
     5     3    25    1
     6    25    27    1
     7    27    28    1
     8    28    29    1
     9    29    30    1
    10    30    31    1
    11    30    32    1
    12     3     4   ar
    13     4     5   ar
    14     5     6   ar
    15     6    10    1
    16    10    11   ar
    17    11    12   ar
    18    12    13   ar
    19    13    16    1
    20    16    17    1
    21    17    18    1
    22    18    19    1
    23    19    20    1
    24    20    21    1
    25    13    14   ar
    26    14    15   ar
    27     6     7   ar
    28     7     8   ar
    29     8     9   ar
    30     9     1   ar
    31     8     4   ar
    32    15    10   ar
    33    21    16    1
    34    23    24    1
    35    25    26    1
@<TRIPOS>MOLECULE
*****
 32 35 0 0 0
SMALL
GASTEIGER

@<TRIPOS>ATOM
      1 C         144.0930  140.3646  157.9427 C.ar    1  UNL1        0.2181
      2 N         143.8093  141.8326  157.8227 N.ar    1  UNL1       -0.1986
      3 C         143.2987  142.5972  159.0080 C.ar    1  UNL1        0.1388
      4 C         143.0718  141.8936  160.3132 C.ar    1  UNL1        0.0786
      5 S         142.5792  142.3807  161.6436 S.2     1  UNL1       -0.0826
      6 C         142.5585  141.2137  162.5858 C.ar    1  UNL1        0.0311
      7 C         143.0383  140.0054  161.8377 C.ar    1  UNL1        0.0263
      8 C         143.3555  140.4256  160.4331 C.ar    1  UNL1        0.0933
      9 N         143.8661  139.6611  159.2478 N.ar    1  UNL1       -0.2132
     10 C         142.1327  141.2489  164.0237 C.ar    1  UNL1        0.0061
     11 C         141.5243  142.4950  164.5954 C.ar    1  UNL1        0.0018
     12 C         141.0985  142.5301  166.0333 C.ar    1  UNL1        0.0145
     13 C         141.2812  141.3192  166.8995 C.ar    1  UNL1        0.0480
     14 C         141.8897  140.0730  166.3277 C.ar    1  UNL1        0.0145
     15 C         142.3154  140.0380  164.8898 C.ar    1  UNL1        0.0018
     16 N         140.8554  141.3543  168.3373 N.pl3   1  UNL1       -0.3028
     17 C         140.7650  140.0804  169.1241 C.3     1  UNL1        0.1231
     18 C         140.3392  140.1156  170.5620 C.3     1  UNL1        0.1636
     19 O         140.0039  141.4248  171.2130 O.3     1  UNL1       -0.3501
     20 C         140.0944  142.6985  170.4262 C.3     1  UNL1        0.1636
     21 C         140.5201  142.6634  168.9883 C.3     1  UNL1        0.1231
     22 C         145.4895  140.2765  155.7536 C.3     1  UNL1        0.1108
     23 N         144.6036  139.6001  156.7574 N.pl3   1  UNL1       -0.3013
     24 H         144.3572  138.6544  156.6383 H       1  UNL1        0.1497
     25 N         143.0150  144.0652  158.8880 N.pl3   1  UNL1       -0.3176
     26 H         143.1929  144.6647  159.6484 H       1  UNL1        0.1482
     27 C         142.4602  144.6198  157.6095 C.3     1  UNL1        0.0896
     28 C         141.5176  145.7861  157.6446 C.3     1  UNL1        0.0385
     29 C         140.1569  145.6325  158.2571 C.3     1  UNL1        0.0739
     30 N         139.9939  144.8765  159.5424 N.3     1  UNL1       -0.2703
     31 C         140.3095  145.5418  160.8491 C.3     1  UNL1        0.0897
     32 C         139.5151  143.4551  159.5207 C.3     1  UNL1        0.0897
@<TRIPOS>BOND
     1    22    23    1
     2    23     1    1
     3     1     2   ar
     4     2     3   ar
     5     3    25    1
     6    25    27    1
     7    27    28    1
     8    28    29    1
     9    29    30    1
    10    30    31    1
    11    30    32    1
    12     3     4   ar
    13     4     5   ar
    14     5     6   ar
    15     6    10    1
    16    10    11   ar
    17    11    12   ar
    18    12    13   ar
    19    13    16    1
    20    16    17    1
    21    17    18    1
    22    18    19    1
    23    19    20    1
    24    20    21    1
    25    13    14   ar
    26    14    15   ar
    27     6     7   ar
    28     7     8   ar
    29     8     9   ar
    30     9     1   ar
    31     8     4   ar
    32    15    10   ar
    33    21    16    1
    34    23    24    1
    35    25    26    1
@<TRIPOS>MOLECULE
*****
 32 35 0 0 0
SMALL
GASTEIGER

@<TRIPOS>ATOM
      1 C         142.5770  137.7180  158.3648 C.ar    1  UNL1        0.2181
      2 N         141.1966  138.2794  158.1945 N.ar    1  UNL1       -0.1986
      3 C         140.5111  138.9480  159.3491 C.ar    1  UNL1        0.1388
      4 C         141.2061  139.0551  160.6740 C.ar    1  UNL1        0.0786
      5 S         140.7847  139.6546  161.9829 S.2     1  UNL1       -0.0826
      6 C         141.9048  139.4636  162.9621 C.ar    1  UNL1        0.0311
      7 C         143.0184  138.7461  162.2585 C.ar    1  UNL1        0.0263
      8 C         142.5866  138.4936  160.8443 C.ar    1  UNL1        0.0933
      9 N         143.2721  137.8251  159.6897 N.ar    1  UNL1       -0.2132
     10 C         141.9103  139.9114  164.3937 C.ar    1  UNL1        0.0061
     11 C         141.6089  141.3410  164.7335 C.ar    1  UNL1        0.0018
     12 C         141.6145  141.7887  166.1651 C.ar    1  UNL1        0.0145
     13 C         141.9214  140.8070  167.2569 C.ar    1  UNL1        0.0480
     14 C         142.2228  139.3775  166.9171 C.ar    1  UNL1        0.0145
     15 C         142.2172  138.9297  165.4855 C.ar    1  UNL1        0.0018
     16 N         141.9269  141.2549  168.6885 N.pl3   1  UNL1       -0.3028
     17 C         141.1622  140.4794  169.7199 C.3     1  UNL1        0.1231
     18 C         141.1677  140.9273  171.1515 C.3     1  UNL1        0.1636
     19 O         141.9380  142.1506  171.5516 O.3     1  UNL1       -0.3501
     20 C         142.7027  142.9260  170.5201 C.3     1  UNL1        0.1636
     21 C         142.6972  142.4782  169.0886 C.3     1  UNL1        0.1231
     22 C         142.8926  135.6467  156.8285 C.3     1  UNL1        0.1108
     23 N         143.2626  137.0493  157.2102 N.pl3   1  UNL1       -0.3013
     24 H         143.9553  137.5311  156.7030 H       1  UNL1        0.1497
     25 N         139.1306  139.5095  159.1787 N.pl3   1  UNL1       -0.3176
     26 H         138.3450  138.9263  159.2883 H       1  UNL1        0.1482
     27 C         138.9470  140.9595  158.8413 C.3     1  UNL1        0.0896
     28 C         138.4983  141.9244  159.8984 C.3     1  UNL1        0.0385
     29 C         139.4048  143.0388  160.3302 C.3     1  UNL1        0.0739
     30 N         139.0243  143.9077  161.4922 N.3     1  UNL1       -0.2703
     31 C         139.7323  145.2107  161.7179 C.3     1  UNL1        0.0897
     32 C         137.9358  143.4735  162.4285 C.3     1  UNL1        0.0897
@<TRIPOS>BOND
     1    22    23    1
     2    23     1    1
     3     1     2   ar
     4     2     3   ar
     5     3    25    1
     6    25    27    1
     7    27    28    1
     8    28    29    1
     9    29    30    1
    10    30    31    1
    11    30    32    1
    12     3     4   ar
    13     4     5   ar
    14     5     6   ar
    15     6    10    1
    16    10    11   ar
    17    11    12   ar
    18    12    13   ar
    19    13    16    1
    20    16    17    1
    21    17    18    1
    22    18    19    1
    23    19    20    1
    24    20    21    1
    25    13    14   ar
    26    14    15   ar
    27     6     7   ar
    28     7     8   ar
    29     8     9   ar
    30     9     1   ar
    31     8     4   ar
    32    15    10   ar
    33    21    16    1
    34    23    24    1
    35    25    26    1
@<TRIPOS>MOLECULE
*****
 32 35 0 0 0
SMALL
GASTEIGER

@<TRIPOS>ATOM
      1 C         142.5280  137.5614  157.9771 C.ar    1  UNL1        0.2181
      2 N         141.1512  138.1300  157.8015 N.ar    1  UNL1       -0.1986
      3 C         140.4094  138.6779  158.9846 C.ar    1  UNL1        0.1388
      4 C         141.0446  138.6571  160.3433 C.ar    1  UNL1        0.0786
      5 S         140.5606  139.1222  161.6847 S.2     1  UNL1       -0.0826
      6 C         141.6384  138.8410  162.6894 C.ar    1  UNL1        0.0311
      7 C         142.7885  138.2021  161.9689 C.ar    1  UNL1        0.0263
      8 C         142.4215  138.0884  160.5189 C.ar    1  UNL1        0.0933
      9 N         143.1632  137.5406  159.3358 N.ar    1  UNL1       -0.2132
     10 C         141.5770  139.1453  164.1569 C.ar    1  UNL1        0.0061
     11 C         142.7920  138.9508  165.0147 C.ar    1  UNL1        0.0018
     12 C         142.7305  139.2551  166.4823 C.ar    1  UNL1        0.0145
     13 C         141.4540  139.7539  167.0920 C.ar    1  UNL1        0.0480
     14 C         140.2389  139.9483  166.2342 C.ar    1  UNL1        0.0145
     15 C         140.3005  139.6440  164.7666 C.ar    1  UNL1        0.0018
     16 N         141.3925  140.0581  168.5595 N.pl3   1  UNL1       -0.3028
     17 C         140.0638  140.1981  169.2415 C.3     1  UNL1        0.1231
     18 C         140.0024  140.5024  170.7090 C.3     1  UNL1        0.1636
     19 O         141.2697  140.6667  171.4945 O.3     1  UNL1       -0.3501
     20 C         142.5983  140.5267  170.8126 C.3     1  UNL1        0.1636
     21 C         142.6597  140.2224  169.3450 C.3     1  UNL1        0.1231
     22 C         143.2620  135.5385  156.5213 C.3     1  UNL1        0.1108
     23 N         143.2697  137.0135  156.7940 N.pl3   1  UNL1       -0.3013
     24 H         143.7616  137.6220  156.1964 H       1  UNL1        0.1497
     25 N         139.0325  139.2465  158.8090 N.pl3   1  UNL1       -0.3176
     26 H         138.3380  139.0720  159.4846 H       1  UNL1        0.1482
     27 C         138.7138  140.0810  157.6040 C.3     1  UNL1        0.0896
     28 C         137.9513  141.3633  157.7602 C.3     1  UNL1        0.0385
     29 C         138.5964  142.5433  158.4246 C.3     1  UNL1        0.0739
     30 N         139.1792  142.4040  159.7997 N.3     1  UNL1       -0.2703
     31 C         138.2811  142.1397  160.9717 C.3     1  UNL1        0.0897
     32 C         140.6601  142.5289  160.0028 C.3     1  UNL1        0.0897
@<TRIPOS>BOND
     1    22    23    1
     2    23     1    1
     3     1     2   ar
     4     2     3   ar
     5     3    25    1
     6    25    27    1
     7    27    28    1
     8    28    29    1
     9    29    30    1
    10    30    31    1
    11    30    32    1
    12     3     4   ar
    13     4     5   ar
    14     5     6   ar
    15     6    10    1
    16    10    11   ar
    17    11    12   ar
    18    12    13   ar
    19    13    16    1
    20    16    17    1
    21    17    18    1
    22    18    19    1
    23    19    20    1
    24    20    21    1
    25    13    14   ar
    26    14    15   ar
    27     6     7   ar
    28     7     8   ar
    29     8     9   ar
    30     9     1   ar
    31     8     4   ar
    32    15    10   ar
    33    21    16    1
    34    23    24    1
    35    25    26    1
@<TRIPOS>MOLECULE
*****
 32 35 0 0 0
SMALL
GASTEIGER

@<TRIPOS>ATOM
      1 C         144.9058  141.9643  158.3250 C.ar    1  UNL1        0.2181
      2 N         144.4390  140.5552  158.1097 N.ar    1  UNL1       -0.1986
      3 C         143.8001  139.7965  159.2349 C.ar    1  UNL1        0.1388
      4 C         143.6280  140.4470  160.5755 C.ar    1  UNL1        0.0786
      5 S         143.0384  139.9521  161.8630 S.2     1  UNL1       -0.0826
      6 C         143.1409  141.0555  162.8740 C.ar    1  UNL1        0.0311
      7 C         143.7938  142.2322  162.2114 C.ar    1  UNL1        0.0263
      8 C         144.0949  141.8562  160.7908 C.ar    1  UNL1        0.0933
      9 N         144.7338  142.6148  159.6656 N.ar    1  UNL1       -0.2132
     10 C         142.6727  140.9930  164.2976 C.ar    1  UNL1        0.0061
     11 C         142.0798  142.2087  164.9462 C.ar    1  UNL1        0.0018
     12 C         141.6116  142.1462  166.3699 C.ar    1  UNL1        0.0145
     13 C         141.7362  140.8681  167.1450 C.ar    1  UNL1        0.0480
     14 C         142.3291  139.6524  166.4965 C.ar    1  UNL1        0.0145
     15 C         142.7973  139.7149  165.0728 C.ar    1  UNL1        0.0018
     16 N         141.2680  140.8057  168.5687 N.pl3   1  UNL1       -0.3028
     17 C         139.8662  140.3710  168.8789 C.3     1  UNL1        0.1231
     18 C         139.3980  140.3086  170.3026 C.3     1  UNL1        0.1636
     19 O         140.3316  140.6809  171.4161 O.3     1  UNL1       -0.3501
     20 C         141.7333  141.1155  171.1059 C.3     1  UNL1        0.1636
     21 C         142.2015  141.1779  169.6822 C.3     1  UNL1        0.1231
     22 C         146.6417  142.0899  156.3960 C.3     1  UNL1        0.1108
     23 N         145.5448  142.7230  157.1997 N.pl3   1  UNL1       -0.3013
     24 H         145.2442  143.6364  156.9887 H       1  UNL1        0.1497
     25 N         143.3333  138.3873  159.0195 N.pl3   1  UNL1       -0.3176
     26 H         143.8022  137.6409  159.4580 H       1  UNL1        0.1482
     27 C         142.1520  138.1153  158.1360 C.3     1  UNL1        0.0896
     28 C         142.3589  137.5694  156.7543 C.3     1  UNL1        0.0385
     29 C         141.7661  136.2448  156.3747 C.3     1  UNL1        0.0739
     30 N         142.6587  135.0608  156.1482 N.3     1  UNL1       -0.2703
     31 C         143.3504  134.4099  157.3091 C.3     1  UNL1        0.0897
     32 C         142.8596  134.5277  154.7606 C.3     1  UNL1        0.0897
@<TRIPOS>BOND
     1    22    23    1
     2    23     1    1
     3     1     2   ar
     4     2     3   ar
     5     3    25    1
     6    25    27    1
     7    27    28    1
     8    28    29    1
     9    29    30    1
    10    30    31    1
    11    30    32    1
    12     3     4   ar
    13     4     5   ar
    14     5     6   ar
    15     6    10    1
    16    10    11   ar
    17    11    12   ar
    18    12    13   ar
    19    13    16    1
    20    16    17    1
    21    17    18    1
    22    18    19    1
    23    19    20    1
    24    20    21    1
    25    13    14   ar
    26    14    15   ar
    27     6     7   ar
    28     7     8   ar
    29     8     9   ar
    30     9     1   ar
    31     8     4   ar
    32    15    10   ar
    33    21    16    1
    34    23    24    1
    35    25    26    1
