@<TRIPOS>MOLECULE
*****
 36 39 0 0 0
SMALL
GASTEIGER

@<TRIPOS>ATOM
      1 C         140.4690  141.9147  159.9272 C.3     1  UNL1        0.0704
      2 C         141.1615  141.1989  158.8055 C.3     1  UNL1        0.0100
      3 C         140.9126  139.7289  158.9701 C.3     1  UNL1        0.0162
      4 C         140.0663  139.5361  160.1935 C.3     1  UNL1        0.0545
      5 C         139.7921  140.8871  160.7850 C.3     1  UNL1        0.0243
      6 C         139.8929  142.8879  160.9125 C.2     1  UNL1        0.2248
      7 O         138.9035  143.9193  160.4571 O.2     1  UNL1       -0.2749
      8 N         140.3061  142.8297  162.3534 N.am    1  UNL1       -0.2760
      9 C         139.7299  143.8028  163.3387 C.3     1  UNL1        0.1149
     10 C         140.1431  143.7446  164.7795 C.3     1  UNL1        0.1137
     11 N         141.1325  142.7132  165.2349 N.pl3   1  UNL1       -0.2897
     12 C         141.7086  141.7400  164.2496 C.3     1  UNL1        0.1137
     13 C         141.2954  141.7983  162.8088 C.3     1  UNL1        0.1149
     14 C         141.5457  142.6550  166.6757 C.ar    1  UNL1        0.1317
     15 C         140.5469  142.9512  167.7549 C.ar    1  UNL1        0.0382
     16 C         140.9601  142.8930  169.1958 C.ar    1  UNL1        0.0757
     17 C         142.3721  142.5386  169.5573 C.ar    1  UNL1        0.0246
     18 C         143.3709  142.2424  168.4780 C.ar    1  UNL1        0.1002
     19 N         142.9577  142.3006  167.0373 N.ar    1  UNL1       -0.2292
     20 C         139.9614  143.1892  170.2750 C.3     1  UNL1        0.4187
     21 F         138.9627  143.4855  171.3542 F       1  UNL1       -0.1659
     22 F         140.3347  144.6411  170.2219 F       1  UNL1       -0.1659
     23 F         139.5881  141.7374  170.3280 F       1  UNL1       -0.1659
     24 C         140.4013  143.6764  158.0189 C.3     1  UNL1        0.0005
     25 C         141.0254  143.1458  159.2754 C.3     1  UNL1        0.0082
     26 C         142.2060  143.8462  159.8802 C.3     1  UNL1        0.0005
     27 N         139.5796  138.2231  160.7310 N.3     1  UNL1       -0.2975
     28 H         140.0704  137.4933  160.2144 H       1  UNL1        0.1232
     29 C         139.7385  137.9038  162.1880 C.3     1  UNL1        0.0862
     30 C         138.5952  138.1254  163.1334 C.3     1  UNL1        0.0503
     31 C         138.7541  137.8061  164.5904 C.3     1  UNL1        0.1437
     32 O         140.0563  137.2652  165.1020 O.3     1  UNL1       -0.3511
     33 C         141.1996  137.0436  164.1566 C.3     1  UNL1        0.1726
     34 C         141.0407  137.3629  162.6996 C.3     1  UNL1        0.1543
     35 O         142.1840  137.1413  161.7542 O.3     1  UNL1       -0.3805
     36 H         142.9448  136.7908  162.2433 H       1  UNL1        0.2105
@<TRIPOS>BOND
     1    24    25    1
     2    25    26    1
     3     1    25    1
     4     1     6    1
     5     6     7    2
     6     6     8   am
     7     8     9    1
     8     9    10    1
     9    10    11    1
    10    11    14    1
    11    14    15   ar
    12    15    16   ar
    13    16    20    1
    14    20    21    1
    15    20    22    1
    16    20    23    1
    17    16    17   ar
    18    17    18   ar
    19    18    19   ar
    20    11    12    1
    21    12    13    1
    22     1     2    1
    23     2     3    1
    24     3     4    1
    25     4    27    1
    26    29    27    1
    27    29    30    1
    28    30    31    1
    29    31    32    1
    30    32    33    1
    31    33    34    1
    32    34    35    1
    33     4     5    1
    34     5     1    1
    35    13     8    1
    36    34    29    1
    37    19    14   ar
    38    27    28    1
    39    35    36    1
@<TRIPOS>MOLECULE
*****
 36 39 0 0 0
SMALL
GASTEIGER

@<TRIPOS>ATOM
      1 C         141.3677  139.7551  160.6424 C.3     1  UNL1        0.0704
      2 C         140.4062  139.0476  159.7340 C.3     1  UNL1        0.0100
      3 C         139.1556  139.8717  159.6506 C.3     1  UNL1        0.0162
      4 C         139.3441  141.0884  160.5074 C.3     1  UNL1        0.0545
      5 C         140.7113  141.0163  161.1204 C.3     1  UNL1        0.0243
      6 C         142.5165  140.2191  161.4878 C.2     1  UNL1        0.2248
      7 O         143.7960  140.6574  160.8391 O.2     1  UNL1       -0.2749
      8 N         142.3860  140.2448  162.9819 N.am    1  UNL1       -0.2760
      9 C         143.5348  140.7089  163.8273 C.3     1  UNL1        0.1149
     10 C         143.4042  140.7345  165.3214 C.3     1  UNL1        0.1137
     11 N         142.1247  140.2962  165.9700 N.pl3   1  UNL1       -0.2897
     12 C         140.9758  139.8322  165.1247 C.3     1  UNL1        0.1137
     13 C         141.1065  139.8065  163.6306 C.3     1  UNL1        0.1149
     14 C         141.9941  140.3219  167.4642 C.ar    1  UNL1        0.1317
     15 C         141.1470  141.3686  168.1251 C.ar    1  UNL1        0.0382
     16 C         141.0164  141.3943  169.6192 C.ar    1  UNL1        0.0757
     17 C         141.7330  140.3733  170.4524 C.ar    1  UNL1        0.0246
     18 C         142.5802  139.3267  169.7914 C.ar    1  UNL1        0.1002
     19 N         142.7107  139.3010  168.2973 N.ar    1  UNL1       -0.2292
     20 C         140.1693  142.4409  170.2802 C.3     1  UNL1        0.4187
     21 F         139.3221  143.4875  170.9411 F       1  UNL1       -0.1659
     22 F         138.9975  141.5047  170.2608 F       1  UNL1       -0.1659
     23 F         141.3410  143.3771  170.2995 F       1  UNL1       -0.1659
     24 C         142.6025  137.6058  161.4207 C.3     1  UNL1        0.0005
     25 C         142.2642  138.5909  160.3412 C.3     1  UNL1        0.0082
     26 C         142.8225  138.4117  158.9606 C.3     1  UNL1        0.0005
     27 N         138.3416  142.1846  160.7147 N.3     1  UNL1       -0.2975
     28 H         137.4190  141.7513  160.6754 H       1  UNL1        0.1232
     29 C         138.3797  143.0088  161.9675 C.3     1  UNL1        0.0862
     30 C         139.2389  144.2367  162.0315 C.3     1  UNL1        0.0503
     31 C         139.2771  145.0609  163.2842 C.3     1  UNL1        0.1437
     32 O         138.4561  144.6572  164.4729 O.3     1  UNL1       -0.3511
     33 C         137.5969  143.4293  164.4089 C.3     1  UNL1        0.1726
     34 C         137.5588  142.6051  163.1562 C.3     1  UNL1        0.1543
     35 O         136.6996  141.3772  163.0922 O.3     1  UNL1       -0.3805
     36 H         136.2388  141.2605  163.9378 H       1  UNL1        0.2105
@<TRIPOS>BOND
     1    24    25    1
     2    25    26    1
     3     1    25    1
     4     1     6    1
     5     6     7    2
     6     6     8   am
     7     8     9    1
     8     9    10    1
     9    10    11    1
    10    11    14    1
    11    14    15   ar
    12    15    16   ar
    13    16    20    1
    14    20    21    1
    15    20    22    1
    16    20    23    1
    17    16    17   ar
    18    17    18   ar
    19    18    19   ar
    20    11    12    1
    21    12    13    1
    22     1     2    1
    23     2     3    1
    24     3     4    1
    25     4    27    1
    26    29    27    1
    27    29    30    1
    28    30    31    1
    29    31    32    1
    30    32    33    1
    31    33    34    1
    32    34    35    1
    33     4     5    1
    34     5     1    1
    35    13     8    1
    36    34    29    1
    37    19    14   ar
    38    27    28    1
    39    35    36    1
@<TRIPOS>MOLECULE
*****
 36 39 0 0 0
SMALL
GASTEIGER

@<TRIPOS>ATOM
      1 C         140.5481  143.0666  160.9052 C.3     1  UNL1        0.0704
      2 C         139.2689  143.0395  160.1223 C.3     1  UNL1        0.0100
      3 C         138.8354  141.6095  159.9918 C.3     1  UNL1        0.0162
      4 C         139.8467  140.7526  160.6941 C.3     1  UNL1        0.0545
      5 C         140.9052  141.6532  161.2586 C.3     1  UNL1        0.0243
      6 C         141.8076  143.4038  161.6466 C.2     1  UNL1        0.2248
      7 O         142.9484  144.0604  160.9272 O.2     1  UNL1       -0.2749
      8 N         141.9265  143.0845  163.1074 N.am    1  UNL1       -0.2760
      9 C         143.1860  143.4218  163.8488 C.3     1  UNL1        0.1149
     10 C         143.3048  143.1025  165.3096 C.3     1  UNL1        0.1137
     11 N         142.1640  142.4459  166.0290 N.pl3   1  UNL1       -0.2897
     12 C         140.9044  142.1086  165.2876 C.3     1  UNL1        0.1137
     13 C         140.7857  142.4279  163.8268 C.3     1  UNL1        0.1149
     14 C         142.2828  142.1265  167.4898 C.ar    1  UNL1        0.1317
     15 C         141.1950  141.3589  168.1806 C.ar    1  UNL1        0.0382
     16 C         141.3138  141.0396  169.6415 C.ar    1  UNL1        0.0757
     17 C         142.5205  141.4879  170.4114 C.ar    1  UNL1        0.0246
     18 C         143.6084  142.2556  169.7205 C.ar    1  UNL1        0.1002
     19 N         143.4895  142.5749  168.2598 N.ar    1  UNL1       -0.2292
     20 C         140.2259  140.2719  170.3323 C.3     1  UNL1        0.4187
     21 F         139.1381  139.5043  171.0231 F       1  UNL1       -0.1659
     22 F         139.3048  141.4468  170.1873 F       1  UNL1       -0.1659
     23 F         141.1471  139.0970  170.4772 F       1  UNL1       -0.1659
     24 C         140.0516  145.4358  161.8487 C.3     1  UNL1        0.0005
     25 C         140.4543  144.5504  160.7068 C.3     1  UNL1        0.0082
     26 C         140.7632  145.1488  159.3665 C.3     1  UNL1        0.0005
     27 N         139.8066  139.2578  160.8114 N.3     1  UNL1       -0.2975
     28 H         140.5988  138.8993  160.2782 H       1  UNL1        0.1232
     29 C         139.8652  138.6096  162.1629 C.3     1  UNL1        0.0862
     30 C         138.8226  138.9279  163.1931 C.3     1  UNL1        0.0503
     31 C         138.8812  138.2798  164.5446 C.3     1  UNL1        0.1437
     32 O         139.9824  137.3133  164.8658 O.3     1  UNL1       -0.3511
     33 C         141.0251  136.9949  163.8355 C.3     1  UNL1        0.1726
     34 C         140.9664  137.6431  162.4840 C.3     1  UNL1        0.1543
     35 O         142.0091  137.3248  161.4536 O.3     1  UNL1       -0.3805
     36 H         142.6421  136.6878  161.8203 H       1  UNL1        0.2105
@<TRIPOS>BOND
     1    24    25    1
     2    25    26    1
     3     1    25    1
     4     1     6    1
     5     6     7    2
     6     6     8   am
     7     8     9    1
     8     9    10    1
     9    10    11    1
    10    11    14    1
    11    14    15   ar
    12    15    16   ar
    13    16    20    1
    14    20    21    1
    15    20    22    1
    16    20    23    1
    17    16    17   ar
    18    17    18   ar
    19    18    19   ar
    20    11    12    1
    21    12    13    1
    22     1     2    1
    23     2     3    1
    24     3     4    1
    25     4    27    1
    26    29    27    1
    27    29    30    1
    28    30    31    1
    29    31    32    1
    30    32    33    1
    31    33    34    1
    32    34    35    1
    33     4     5    1
    34     5     1    1
    35    13     8    1
    36    34    29    1
    37    19    14   ar
    38    27    28    1
    39    35    36    1
@<TRIPOS>MOLECULE
*****
 36 39 0 0 0
SMALL
GASTEIGER

@<TRIPOS>ATOM
      1 C         142.0013  141.6043  159.8602 C.3     1  UNL1        0.0704
      2 C         141.1241  140.9471  158.8362 C.3     1  UNL1        0.0100
      3 C         139.7321  141.4788  159.0086 C.3     1  UNL1        0.0162
      4 C         139.7490  142.4645  160.1391 C.3     1  UNL1        0.0545
      5 C         141.1516  142.5421  160.6655 C.3     1  UNL1        0.0243
      6 C         143.1045  142.0864  160.7549 C.2     1  UNL1        0.2248
      7 O         144.2595  142.8494  160.1771 O.2     1  UNL1       -0.2749
      8 N         143.0527  141.8056  162.2276 N.am    1  UNL1       -0.2760
      9 C         144.1559  142.2877  163.1223 C.3     1  UNL1        0.1149
     10 C         144.1041  142.0069  164.5948 C.3     1  UNL1        0.1137
     11 N         142.9491  141.2439  165.1726 N.pl3   1  UNL1       -0.2897
     12 C         141.8459  140.7617  164.2779 C.3     1  UNL1        0.1137
     13 C         141.8978  141.0426  162.8054 C.3     1  UNL1        0.1149
     14 C         142.8973  140.9630  166.6452 C.ar    1  UNL1        0.1317
     15 C         143.1257  142.0722  167.6288 C.ar    1  UNL1        0.0382
     16 C         143.0739  141.7914  169.1014 C.ar    1  UNL1        0.0757
     17 C         142.7938  140.4013  169.5904 C.ar    1  UNL1        0.0246
     18 C         142.5654  139.2920  168.6067 C.ar    1  UNL1        0.1002
     19 N         142.6172  139.5729  167.1342 N.ar    1  UNL1       -0.2292
     20 C         143.3023  142.9006  170.0849 C.3     1  UNL1        0.4187
     21 F         143.5306  144.0099  171.0685 F       1  UNL1       -0.1659
     22 F         144.7473  142.5118  170.1880 F       1  UNL1       -0.1659
     23 F         141.8573  143.2895  169.9819 F       1  UNL1       -0.1659
     24 C         143.6166  139.5726  159.9746 C.3     1  UNL1        0.0005
     25 C         143.0817  140.7673  159.2421 C.3     1  UNL1        0.0082
     26 C         143.6272  141.1249  157.8913 C.3     1  UNL1        0.0005
     27 N         138.5705  143.2370  160.6531 N.3     1  UNL1       -0.2975
     28 H         137.7351  142.7435  160.3386 H       1  UNL1        0.1232
     29 C         138.4090  143.4666  162.1266 C.3     1  UNL1        0.0862
     30 C         139.0084  144.6838  162.7661 C.3     1  UNL1        0.0503
     31 C         138.8468  144.9134  164.2396 C.3     1  UNL1        0.1437
     32 O         138.0859  143.9258  165.0736 O.3     1  UNL1       -0.3511
     33 C         137.4865  142.7086  164.4341 C.3     1  UNL1        0.1726
     34 C         137.6480  142.4790  162.9605 C.3     1  UNL1        0.1543
     35 O         137.0486  141.2617  162.3210 O.3     1  UNL1       -0.3805
     36 H         136.5946  140.7325  162.9953 H       1  UNL1        0.2105
@<TRIPOS>BOND
     1    24    25    1
     2    25    26    1
     3     1    25    1
     4     1     6    1
     5     6     7    2
     6     6     8   am
     7     8     9    1
     8     9    10    1
     9    10    11    1
    10    11    14    1
    11    14    15   ar
    12    15    16   ar
    13    16    20    1
    14    20    21    1
    15    20    22    1
    16    20    23    1
    17    16    17   ar
    18    17    18   ar
    19    18    19   ar
    20    11    12    1
    21    12    13    1
    22     1     2    1
    23     2     3    1
    24     3     4    1
    25     4    27    1
    26    29    27    1
    27    29    30    1
    28    30    31    1
    29    31    32    1
    30    32    33    1
    31    33    34    1
    32    34    35    1
    33     4     5    1
    34     5     1    1
    35    13     8    1
    36    34    29    1
    37    19    14   ar
    38    27    28    1
    39    35    36    1
@<TRIPOS>MOLECULE
*****
 36 39 0 0 0
SMALL
GASTEIGER

@<TRIPOS>ATOM
      1 C         139.4085  139.9708  161.4151 C.3     1  UNL1        0.0704
      2 C         139.5866  140.9299  160.2756 C.3     1  UNL1        0.0100
      3 C         141.0404  140.9462  159.9064 C.3     1  UNL1        0.0162
      4 C         141.7608  139.9972  160.8177 C.3     1  UNL1        0.0545
      5 C         140.7522  139.3943  161.7502 C.3     1  UNL1        0.0243
      6 C         138.9285  139.0939  162.5333 C.2     1  UNL1        0.2248
      7 O         138.0888  137.8877  162.2331 O.2     1  UNL1       -0.2749
      8 N         139.2882  139.4231  163.9519 N.am    1  UNL1       -0.2760
      9 C         138.8081  138.5462  165.0702 C.3     1  UNL1        0.1149
     10 C         139.1678  138.8754  166.4887 C.3     1  UNL1        0.1137
     11 N         140.0075  140.0816  166.7889 N.pl3   1  UNL1       -0.2897
     12 C         140.4875  140.9585  165.6707 C.3     1  UNL1        0.1137
     13 C         140.1279  140.6292  164.2522 C.3     1  UNL1        0.1149
     14 C         140.3672  140.4108  168.2075 C.ar    1  UNL1        0.1317
     15 C         141.5406  141.2992  168.4969 C.ar    1  UNL1        0.0382
     16 C         141.9003  141.6284  169.9155 C.ar    1  UNL1        0.0757
     17 C         141.0865  141.0692  171.0447 C.ar    1  UNL1        0.0246
     18 C         139.9130  140.1807  170.7552 C.ar    1  UNL1        0.1002
     19 N         139.5534  139.8515  169.3367 N.ar    1  UNL1       -0.2292
     20 C         143.0737  142.5168  170.2049 C.3     1  UNL1        0.4187
     21 F         144.2471  143.4053  170.4943 F       1  UNL1       -0.1659
     22 F         144.0004  141.3510  170.0265 F       1  UNL1       -0.1659
     23 F         142.1469  143.6827  170.3833 F       1  UNL1       -0.1659
     24 C         137.1367  139.8868  160.1574 C.3     1  UNL1        0.0005
     25 C         137.9645  140.3639  161.3138 C.3     1  UNL1        0.0082
     26 C         137.3484  141.2340  162.3689 C.3     1  UNL1        0.0005
     27 N         143.2314  139.7027  160.7998 N.3     1  UNL1       -0.2975
     28 H         143.6154  140.1704  159.9787 H       1  UNL1        0.1232
     29 C         144.0899  140.0985  161.9645 C.3     1  UNL1        0.0862
     30 C         144.2470  139.1683  163.1307 C.3     1  UNL1        0.0503
     31 C         145.1054  139.5640  164.2954 C.3     1  UNL1        0.1437
     32 O         145.8067  140.8900  164.2939 O.3     1  UNL1       -0.3511
     33 C         145.6496  141.8202  163.1277 C.3     1  UNL1        0.1726
     34 C         144.7912  141.4244  161.9630 C.3     1  UNL1        0.1543
     35 O         144.6340  142.3547  160.7967 O.3     1  UNL1       -0.3805
     36 H         145.1492  143.1612  160.9548 H       1  UNL1        0.2105
@<TRIPOS>BOND
     1    24    25    1
     2    25    26    1
     3     1    25    1
     4     1     6    1
     5     6     7    2
     6     6     8   am
     7     8     9    1
     8     9    10    1
     9    10    11    1
    10    11    14    1
    11    14    15   ar
    12    15    16   ar
    13    16    20    1
    14    20    21    1
    15    20    22    1
    16    20    23    1
    17    16    17   ar
    18    17    18   ar
    19    18    19   ar
    20    11    12    1
    21    12    13    1
    22     1     2    1
    23     2     3    1
    24     3     4    1
    25     4    27    1
    26    29    27    1
    27    29    30    1
    28    30    31    1
    29    31    32    1
    30    32    33    1
    31    33    34    1
    32    34    35    1
    33     4     5    1
    34     5     1    1
    35    13     8    1
    36    34    29    1
    37    19    14   ar
    38    27    28    1
    39    35    36    1
@<TRIPOS>MOLECULE
*****
 36 39 0 0 0
SMALL
GASTEIGER

@<TRIPOS>ATOM
      1 C         139.8628  140.6756  160.2148 C.3     1  UNL1        0.0704
      2 C         140.1420  139.5648  159.2463 C.3     1  UNL1        0.0100
      3 C         141.6296  139.4015  159.1445 C.3     1  UNL1        0.0162
      4 C         142.2698  140.4115  160.0500 C.3     1  UNL1        0.0545
      5 C         141.1778  141.1990  160.7116 C.3     1  UNL1        0.0243
      6 C         139.2834  141.7228  161.1190 C.2     1  UNL1        0.2248
      7 O         138.5256  142.8796  160.5379 O.2     1  UNL1       -0.2749
      8 N         139.4617  141.6133  162.6044 N.am    1  UNL1       -0.2760
      9 C         138.8822  142.6605  163.5086 C.3     1  UNL1        0.1149
     10 C         139.0606  142.5509  164.9939 C.3     1  UNL1        0.1137
     11 N         139.8183  141.3942  165.5750 N.pl3   1  UNL1       -0.2897
     12 C         140.3978  140.3470  164.6708 C.3     1  UNL1        0.1137
     13 C         140.2194  140.4566  163.1855 C.3     1  UNL1        0.1149
     14 C         139.9966  141.2847  167.0604 C.ar    1  UNL1        0.1317
     15 C         140.9195  142.2257  167.7764 C.ar    1  UNL1        0.0382
     16 C         141.0978  142.1162  169.2618 C.ar    1  UNL1        0.0757
     17 C         140.3532  141.0656  170.0311 C.ar    1  UNL1        0.0246
     18 C         139.4303  140.1245  169.3150 C.ar    1  UNL1        0.1002
     19 N         139.2521  140.2341  167.8297 N.ar    1  UNL1       -0.2292
     20 C         142.0207  143.0572  169.9778 C.3     1  UNL1        0.4187
     21 F         142.9435  143.9983  170.6938 F       1  UNL1       -0.1659
     22 F         143.0568  141.9760  170.0633 F       1  UNL1       -0.1659
     23 F         140.9845  144.1384  169.8923 F       1  UNL1       -0.1659
     24 C         137.8560  140.7239  158.5655 C.3     1  UNL1        0.0005
     25 C         138.4266  140.3712  159.9072 C.3     1  UNL1        0.0082
     26 C         137.5611  139.7142  160.9411 C.3     1  UNL1        0.0005
     27 N         143.7432  140.6008  160.2576 N.3     1  UNL1       -0.2975
     28 H         143.9835  141.5062  159.8539 H       1  UNL1        0.1232
     29 C         144.3141  140.5800  161.6447 C.3     1  UNL1        0.0862
     30 C         144.0779  139.3962  162.5351 C.3     1  UNL1        0.0503
     31 C         144.6487  139.3752  163.9220 C.3     1  UNL1        0.1437
     32 O         145.4556  140.5381  164.4186 O.3     1  UNL1       -0.3511
     33 C         145.6918  141.7219  163.5282 C.3     1  UNL1        0.1726
     34 C         145.1209  141.7428  162.1412 C.3     1  UNL1        0.1543
     35 O         145.3570  142.9267  161.2507 O.3     1  UNL1       -0.3805
     36 H         145.8929  143.5838  161.7218 H       1  UNL1        0.2105
@<TRIPOS>BOND
     1    24    25    1
     2    25    26    1
     3     1    25    1
     4     1     6    1
     5     6     7    2
     6     6     8   am
     7     8     9    1
     8     9    10    1
     9    10    11    1
    10    11    14    1
    11    14    15   ar
    12    15    16   ar
    13    16    20    1
    14    20    21    1
    15    20    22    1
    16    20    23    1
    17    16    17   ar
    18    17    18   ar
    19    18    19   ar
    20    11    12    1
    21    12    13    1
    22     1     2    1
    23     2     3    1
    24     3     4    1
    25     4    27    1
    26    29    27    1
    27    29    30    1
    28    30    31    1
    29    31    32    1
    30    32    33    1
    31    33    34    1
    32    34    35    1
    33     4     5    1
    34     5     1    1
    35    13     8    1
    36    34    29    1
    37    19    14   ar
    38    27    28    1
    39    35    36    1
@<TRIPOS>MOLECULE
*****
 36 39 0 0 0
SMALL
GASTEIGER

@<TRIPOS>ATOM
      1 C         140.7064  143.2589  160.2869 C.3     1  UNL1        0.0704
      2 C         139.3962  143.4899  159.5941 C.3     1  UNL1        0.0100
      3 C         138.7735  142.1526  159.3221 C.3     1  UNL1        0.0162
      4 C         139.6989  141.0950  159.8469 C.3     1  UNL1        0.0545
      5 C         140.8935  141.7788  160.4432 C.3     1  UNL1        0.0243
      6 C         142.0355  143.3409  160.9772 C.2     1  UNL1        0.2248
      7 O         143.2275  143.8853  160.2472 O.2     1  UNL1       -0.2749
      8 N         142.1728  142.8785  162.3976 N.am    1  UNL1       -0.2760
      9 C         143.5019  142.9606  163.0880 C.3     1  UNL1        0.1149
     10 C         143.6391  142.4982  164.5083 C.3     1  UNL1        0.1137
     11 N         142.4471  141.9538  165.2383 N.pl3   1  UNL1       -0.2897
     12 C         141.1180  141.8718  164.5479 C.3     1  UNL1        0.1137
     13 C         140.9808  142.3341  163.1276 C.3     1  UNL1        0.1149
     14 C         142.5844  141.4914  166.6587 C.ar    1  UNL1        0.1317
     15 C         142.9405  142.4727  167.7357 C.ar    1  UNL1        0.0382
     16 C         143.0778  142.0103  169.1561 C.ar    1  UNL1        0.0757
     17 C         142.8589  140.5666  169.4994 C.ar    1  UNL1        0.0246
     18 C         142.5027  139.5853  168.4222 C.ar    1  UNL1        0.1002
     19 N         142.3655  140.0477  167.0019 N.ar    1  UNL1       -0.2292
     20 C         143.4339  142.9916  170.2332 C.3     1  UNL1        0.4187
     21 F         143.7900  143.9730  171.3103 F       1  UNL1       -0.1659
     22 F         141.9810  143.3146  170.4194 F       1  UNL1       -0.1659
     23 F         144.8868  142.6687  170.0471 F       1  UNL1       -0.1659
     24 C         141.1725  145.4746  159.0129 C.3     1  UNL1        0.0005
     25 C         140.7972  144.7561  160.2749 C.3     1  UNL1        0.0082
     26 C         140.5126  145.5347  161.5250 C.3     1  UNL1        0.0005
     27 N         139.4699  139.6140  159.7862 N.3     1  UNL1       -0.2975
     28 H         140.0723  139.2530  159.0464 H       1  UNL1        0.1232
     29 C         139.7178  138.7663  160.9987 C.3     1  UNL1        0.0862
     30 C         141.1056  138.2889  161.3089 C.3     1  UNL1        0.0503
     31 C         141.3535  137.4412  162.5214 C.3     1  UNL1        0.1437
     32 O         140.2138  137.0710  163.4235 O.3     1  UNL1       -0.3511
     33 C         138.8260  137.5484  163.1132 C.3     1  UNL1        0.1726
     34 C         138.5781  138.3961  161.9008 C.3     1  UNL1        0.1543
     35 O         137.1903  138.8735  161.5905 O.3     1  UNL1       -0.3805
     36 H         136.5773  138.5477  162.2679 H       1  UNL1        0.2105
@<TRIPOS>BOND
     1    24    25    1
     2    25    26    1
     3     1    25    1
     4     1     6    1
     5     6     7    2
     6     6     8   am
     7     8     9    1
     8     9    10    1
     9    10    11    1
    10    11    14    1
    11    14    15   ar
    12    15    16   ar
    13    16    20    1
    14    20    21    1
    15    20    22    1
    16    20    23    1
    17    16    17   ar
    18    17    18   ar
    19    18    19   ar
    20    11    12    1
    21    12    13    1
    22     1     2    1
    23     2     3    1
    24     3     4    1
    25     4    27    1
    26    29    27    1
    27    29    30    1
    28    30    31    1
    29    31    32    1
    30    32    33    1
    31    33    34    1
    32    34    35    1
    33     4     5    1
    34     5     1    1
    35    13     8    1
    36    34    29    1
    37    19    14   ar
    38    27    28    1
    39    35    36    1
@<TRIPOS>MOLECULE
*****
 36 39 0 0 0
SMALL
GASTEIGER

@<TRIPOS>ATOM
      1 C         140.3640  139.1072  164.4899 C.3     1  UNL1        0.0704
      2 C         141.2189  137.9022  164.7493 C.3     1  UNL1        0.0100
      3 C         142.6243  138.3723  164.9813 C.3     1  UNL1        0.0162
      4 C         142.6381  139.8678  164.8652 C.3     1  UNL1        0.0545
      5 C         141.2410  140.3219  164.5615 C.3     1  UNL1        0.0243
      6 C         139.2783  140.1015  164.2030 C.2     1  UNL1        0.2248
      7 O         138.2578  140.4221  165.2546 O.2     1  UNL1       -0.2749
      8 N         139.2130  140.7754  162.8644 N.am    1  UNL1       -0.2760
      9 C         138.1273  141.7698  162.5775 C.3     1  UNL1        0.1149
     10 C         138.0621  142.4437  161.2390 C.3     1  UNL1        0.1137
     11 N         139.0826  142.1231  160.1874 N.pl3   1  UNL1       -0.2897
     12 C         140.1683  141.1287  160.4743 C.3     1  UNL1        0.1137
     13 C         140.2335  140.4549  161.8129 C.3     1  UNL1        0.1149
     14 C         139.0174  142.7970  158.8489 C.ar    1  UNL1        0.1317
     15 C         137.9133  142.4583  157.8917 C.ar    1  UNL1        0.0382
     16 C         137.8480  143.1322  156.5531 C.ar    1  UNL1        0.0757
     17 C         138.8869  144.1448  156.1718 C.ar    1  UNL1        0.0246
     18 C         139.9910  144.4835  157.1291 C.ar    1  UNL1        0.1002
     19 N         140.0562  143.8096  158.4675 N.ar    1  UNL1       -0.2292
     20 C         136.7439  142.7936  155.5960 C.3     1  UNL1        0.4187
     21 F         135.6398  142.4549  154.6388 F       1  UNL1       -0.1659
     22 F         136.7929  141.3634  156.0455 F       1  UNL1       -0.1659
     23 F         136.6949  144.2237  155.1464 F       1  UNL1       -0.1659
     24 C         138.6174  137.5270  165.5865 C.3     1  UNL1        0.0005
     25 C         139.2600  138.1003  164.3583 C.3     1  UNL1        0.0082
     26 C         138.7985  137.6668  162.9985 C.3     1  UNL1        0.0005
     27 N         143.8380  140.7535  165.0248 N.3     1  UNL1       -0.2975
     28 H         144.6592  140.1641  164.8887 H       1  UNL1        0.1232
     29 C         144.0111  141.9493  164.1358 C.3     1  UNL1        0.0862
     30 C         143.5667  143.3030  164.6048 C.3     1  UNL1        0.0503
     31 C         143.7397  144.4988  163.7159 C.3     1  UNL1        0.1437
     32 O         144.3573  144.3409  162.3581 O.3     1  UNL1       -0.3511
     33 C         144.8017  142.9872  161.8891 C.3     1  UNL1        0.1726
     34 C         144.6286  141.7914  162.7781 C.3     1  UNL1        0.1543
     35 O         145.0731  140.4376  162.3091 O.3     1  UNL1       -0.3805
     36 H         145.4472  140.5112  161.4171 H       1  UNL1        0.2105
@<TRIPOS>BOND
     1    24    25    1
     2    25    26    1
     3     1    25    1
     4     1     6    1
     5     6     7    2
     6     6     8   am
     7     8     9    1
     8     9    10    1
     9    10    11    1
    10    11    14    1
    11    14    15   ar
    12    15    16   ar
    13    16    20    1
    14    20    21    1
    15    20    22    1
    16    20    23    1
    17    16    17   ar
    18    17    18   ar
    19    18    19   ar
    20    11    12    1
    21    12    13    1
    22     1     2    1
    23     2     3    1
    24     3     4    1
    25     4    27    1
    26    29    27    1
    27    29    30    1
    28    30    31    1
    29    31    32    1
    30    32    33    1
    31    33    34    1
    32    34    35    1
    33     4     5    1
    34     5     1    1
    35    13     8    1
    36    34    29    1
    37    19    14   ar
    38    27    28    1
    39    35    36    1
@<TRIPOS>MOLECULE
*****
 36 39 0 0 0
SMALL
GASTEIGER

@<TRIPOS>ATOM
      1 C         141.3020  139.9488  166.0847 C.3     1  UNL1        0.0704
      2 C         140.4541  139.1402  167.0213 C.3     1  UNL1        0.0100
      3 C         139.0154  139.4316  166.7127 C.3     1  UNL1        0.0162
      4 C         138.9741  140.4203  165.5854 C.3     1  UNL1        0.0545
      5 C         140.3874  140.7400  165.1973 C.3     1  UNL1        0.0243
      6 C         142.3887  140.6214  165.2994 C.2     1  UNL1        0.2248
      7 O         143.3094  141.5945  165.9742 O.2     1  UNL1       -0.2749
      8 N         142.5547  140.3209  163.8391 N.am    1  UNL1       -0.2760
      9 C         143.6413  140.9935  163.0538 C.3     1  UNL1        0.1149
     10 C         143.8072  140.6930  161.5936 C.3     1  UNL1        0.1137
     11 N         142.8865  139.7199  160.9188 N.pl3   1  UNL1       -0.2897
     12 C         141.7999  139.0473  161.7042 C.3     1  UNL1        0.1137
     13 C         141.6339  139.3478  163.1643 C.3     1  UNL1        0.1149
     14 C         143.0525  139.4194  159.4586 C.ar    1  UNL1        0.1317
     15 C         142.5493  138.1224  158.8978 C.ar    1  UNL1        0.0382
     16 C         142.7152  137.8219  157.4376 C.ar    1  UNL1        0.0757
     17 C         143.3844  138.8185  156.5382 C.ar    1  UNL1        0.0246
     18 C         143.8876  140.1156  157.0990 C.ar    1  UNL1        0.1002
     19 N         143.7216  140.4160  158.5591 N.ar    1  UNL1       -0.2292
     20 C         142.2121  136.5249  156.8769 C.3     1  UNL1        0.4187
     21 F         141.7089  135.2279  156.3161 F       1  UNL1       -0.1659
     22 F         140.8062  137.0445  156.9366 F       1  UNL1       -0.1659
     23 F         143.6179  136.0053  156.8172 F       1  UNL1       -0.1659
     24 C         142.6758  139.5912  168.2607 C.3     1  UNL1        0.0005
     25 C         142.4438  139.2983  166.8080 C.3     1  UNL1        0.0082
     26 C         143.3536  138.3548  166.0785 C.3     1  UNL1        0.0005
     27 N         137.7370  140.9894  164.9566 N.3     1  UNL1       -0.2975
     28 H         137.2051  141.4351  165.7042 H       1  UNL1        0.1232
     29 C         137.8528  141.9945  163.8491 C.3     1  UNL1        0.0862
     30 C         137.8611  143.4608  164.1649 C.3     1  UNL1        0.0503
     31 C         137.9769  144.4659  163.0574 C.3     1  UNL1        0.1437
     32 O         138.0844  144.0046  161.6342 O.3     1  UNL1       -0.3511
     33 C         138.0762  142.5382  161.3184 C.3     1  UNL1        0.1726
     34 C         137.9604  141.5332  162.4259 C.3     1  UNL1        0.1543
     35 O         137.9521  140.0667  162.1101 O.3     1  UNL1       -0.3805
     36 H         138.0289  139.9421  161.1512 H       1  UNL1        0.2105
@<TRIPOS>BOND
     1    24    25    1
     2    25    26    1
     3     1    25    1
     4     1     6    1
     5     6     7    2
     6     6     8   am
     7     8     9    1
     8     9    10    1
     9    10    11    1
    10    11    14    1
    11    14    15   ar
    12    15    16   ar
    13    16    20    1
    14    20    21    1
    15    20    22    1
    16    20    23    1
    17    16    17   ar
    18    17    18   ar
    19    18    19   ar
    20    11    12    1
    21    12    13    1
    22     1     2    1
    23     2     3    1
    24     3     4    1
    25     4    27    1
    26    29    27    1
    27    29    30    1
    28    30    31    1
    29    31    32    1
    30    32    33    1
    31    33    34    1
    32    34    35    1
    33     4     5    1
    34     5     1    1
    35    13     8    1
    36    34    29    1
    37    19    14   ar
    38    27    28    1
    39    35    36    1
