@<TRIPOS>MOLECULE
*****
 39 44 0 0 0
SMALL
GASTEIGER

@<TRIPOS>ATOM
      1 C         142.4577  137.9272  158.6136 C.ar    1  UNL1        0.1261
      2 N         142.9891  137.5780  159.9721 N.ar    1  UNL1       -0.1632
      3 N         142.3822  138.5248  160.9647 N.ar    1  UNL1       -0.2290
      4 C         141.4756  139.4592  160.2196 C.ar    1  UNL1        0.0822
      5 C         141.5223  139.0898  158.7665 C.ar    1  UNL1        0.0413
      6 C         142.6370  138.5354  162.4429 C.ar    1  UNL1        0.0933
      7 C         143.9051  139.1289  162.9811 C.ar    1  UNL1        0.0209
      8 C         144.1599  139.1395  164.4592 C.ar    1  UNL1        0.0130
      9 C         143.1466  138.5566  165.3992 C.ar    1  UNL1        0.0586
     10 CL        143.4015  138.5673  166.8774 Cl      1  UNL1       -0.0822
     11 C         141.8785  137.9631  164.8610 C.ar    1  UNL1        0.0243
     12 C         141.6238  137.9525  163.3828 C.ar    1  UNL1        0.0761
     13 CL        140.3556  137.3590  162.8446 Cl      1  UNL1       -0.0806
     14 C         140.6648  140.5681  160.8218 C.ar    1  UNL1        0.0176
     15 C         141.3099  141.8867  161.1305 C.ar    1  UNL1        0.0024
     16 C         140.4990  142.9957  161.7327 C.ar    1  UNL1        0.0114
     17 C         139.0430  142.7861  162.0262 C.ar    1  UNL1        0.0577
     18 CL        138.2322  143.8951  162.6284 Cl      1  UNL1       -0.0822
     19 C         138.3978  141.4676  161.7175 C.ar    1  UNL1        0.0114
     20 C         139.2088  140.3586  161.1153 C.ar    1  UNL1        0.0024
     21 C         142.8155  135.6446  155.4948 C.ar    1  UNL1        0.1185
     22 N         143.8447  136.6963  155.2038 N.ar    1  UNL1       -0.1450
     23 N         143.8359  137.6793  156.3368 N.ar    1  UNL1       -0.1395
     24 C         142.8013  137.2352  157.3278 C.ar    1  UNL1        0.1525
     25 S         142.1706  135.9777  156.8075 S.2     1  UNL1       -0.0480
     26 C         142.4885  134.4666  154.6256 C.3     1  UNL1        0.1301
     27 C         142.2210  135.3903  153.4744 C.3     1  UNL1        0.0145
     28 C         141.8940  134.2123  152.6052 C.3     1  UNL1        0.0014
     29 C         142.1615  133.2886  153.7564 C.3     1  UNL1        0.0145
     30 F         143.0234  132.6192  156.9280 F       1  UNL1       -0.1696
     31 C         142.7559  133.5429  155.7768 C.3     1  UNL1        0.4025
     32 F         141.2931  133.2209  155.8583 F       1  UNL1       -0.1696
     33 F         144.2187  133.8649  155.6953 F       1  UNL1       -0.1696
     34 C         140.7663  139.7646  157.6606 C.3     1  UNL1        0.1587
     35 N         140.1855  138.9497  156.5432 N.ar    1  UNL1       -0.2254
     36 C         140.5366  139.0693  155.0898 C.ar    1  UNL1        0.1975
     37 N         139.7196  138.0656  154.3314 N.ar    1  UNL1       -0.2007
     38 C         138.8636  137.3257  155.3161 C.ar    1  UNL1        0.2210
     39 N         139.1515  137.8720  156.6831 N.ar    1  UNL1       -0.1448
@<TRIPOS>BOND
     1    30    31    1
     2    31    32    1
     3    31    33    1
     4    31    26    1
     5    26    21    1
     6    21    22   ar
     7    22    23   ar
     8    23    24   ar
     9    24     1    1
    10     1     2   ar
    11     2     3   ar
    12     3     6    1
    13     6     7   ar
    14     7     8   ar
    15     8     9   ar
    16     9    10    1
    17     9    11   ar
    18    11    12   ar
    19    12    13    1
    20     3     4   ar
    21     4    14    1
    22    14    15   ar
    23    15    16   ar
    24    16    17   ar
    25    17    18    1
    26    17    19   ar
    27    19    20   ar
    28     4     5   ar
    29     5    34    1
    30    34    35    1
    31    35    36   ar
    32    36    37   ar
    33    37    38   ar
    34    38    39   ar
    35    24    25   ar
    36    26    27    1
    37    27    28    1
    38    28    29    1
    39    29    26    1
    40    25    21   ar
    41     5     1   ar
    42    39    35   ar
    43    12     6   ar
    44    20    14   ar
@<TRIPOS>MOLECULE
*****
 39 44 0 0 0
SMALL
GASTEIGER

@<TRIPOS>ATOM
      1 C         141.7149  140.1964  163.6425 C.ar    1  UNL1        0.1261
      2 N         141.6843  139.1189  162.5994 N.ar    1  UNL1       -0.1632
      3 N         141.4980  139.7730  161.2625 N.ar    1  UNL1       -0.2290
      4 C         141.4134  141.2549  161.4793 C.ar    1  UNL1        0.0822
      5 C         141.5475  141.5166  162.9501 C.ar    1  UNL1        0.0413
      6 C         141.4115  139.0689  159.9408 C.ar    1  UNL1        0.0933
      7 C         142.6648  138.6590  159.2259 C.ar    1  UNL1        0.0209
      8 C         142.5782  137.9549  157.9043 C.ar    1  UNL1        0.0130
      9 C         141.2383  137.6608  157.2975 C.ar    1  UNL1        0.0586
     10 CL        141.1517  136.9567  155.9758 Cl      1  UNL1       -0.0822
     11 C         139.9850  138.0707  158.0124 C.ar    1  UNL1        0.0243
     12 C         140.0716  138.7748  159.3340 C.ar    1  UNL1        0.0761
     13 CL        138.8182  139.1848  160.0490 Cl      1  UNL1       -0.0806
     14 C         141.2275  142.2928  160.4124 C.ar    1  UNL1        0.0176
     15 C         142.4152  143.0286  159.8667 C.ar    1  UNL1        0.0024
     16 C         142.2292  144.0665  158.7998 C.ar    1  UNL1        0.0114
     17 C         140.8555  144.3687  158.2787 C.ar    1  UNL1        0.0577
     18 CL        140.6696  145.4066  157.2119 Cl      1  UNL1       -0.0822
     19 C         139.6677  143.6329  158.8245 C.ar    1  UNL1        0.0114
     20 C         139.8537  142.5950  159.8913 C.ar    1  UNL1        0.0024
     21 C         141.4727  139.9879  167.5107 C.ar    1  UNL1        0.1185
     22 N         142.8122  139.3574  167.2697 N.ar    1  UNL1       -0.1450
     23 N         143.0659  139.3588  165.7914 N.ar    1  UNL1       -0.1395
     24 C         141.8833  139.9901  165.1186 C.ar    1  UNL1        0.1525
     25 S         140.8986  140.3790  166.1812 S.2     1  UNL1       -0.0480
     26 C         140.8215  140.1916  168.8465 C.3     1  UNL1        0.1301
     27 C         139.4731  139.9970  168.2190 C.3     1  UNL1        0.0145
     28 C         138.8219  140.2007  169.5548 C.3     1  UNL1        0.0014
     29 C         140.1703  140.3954  170.1824 C.3     1  UNL1        0.0145
     30 F         143.5184  140.5811  170.1017 F       1  UNL1       -0.1696
     31 C         142.1700  140.3863  169.4742 C.3     1  UNL1        0.4025
     32 F         142.1265  138.9832  170.0028 F       1  UNL1       -0.1696
     33 F         142.2134  141.7894  168.9455 F       1  UNL1       -0.1696
     34 C         141.5191  142.8622  163.6124 C.3     1  UNL1        0.1587
     35 N         140.6141  143.9373  163.0879 N.ar    1  UNL1       -0.2254
     36 C         139.1148  143.9264  163.1309 C.ar    1  UNL1        0.1975
     37 N         138.6236  145.1944  162.4979 N.ar    1  UNL1       -0.2007
     38 C         139.8194  145.9890  162.0636 C.ar    1  UNL1        0.2210
     39 N         141.0496  145.2121  162.4282 N.ar    1  UNL1       -0.1448
@<TRIPOS>BOND
     1    30    31    1
     2    31    32    1
     3    31    33    1
     4    31    26    1
     5    26    21    1
     6    21    22   ar
     7    22    23   ar
     8    23    24   ar
     9    24     1    1
    10     1     2   ar
    11     2     3   ar
    12     3     6    1
    13     6     7   ar
    14     7     8   ar
    15     8     9   ar
    16     9    10    1
    17     9    11   ar
    18    11    12   ar
    19    12    13    1
    20     3     4   ar
    21     4    14    1
    22    14    15   ar
    23    15    16   ar
    24    16    17   ar
    25    17    18    1
    26    17    19   ar
    27    19    20   ar
    28     4     5   ar
    29     5    34    1
    30    34    35    1
    31    35    36   ar
    32    36    37   ar
    33    37    38   ar
    34    38    39   ar
    35    24    25   ar
    36    26    27    1
    37    27    28    1
    38    28    29    1
    39    29    26    1
    40    25    21   ar
    41     5     1   ar
    42    39    35   ar
    43    12     6   ar
    44    20    14   ar
@<TRIPOS>MOLECULE
*****
 39 44 0 0 0
SMALL
GASTEIGER

@<TRIPOS>ATOM
      1 C         141.3194  141.6270  161.2894 C.ar    1  UNL1        0.1261
      2 N         140.5628  142.6500  160.4951 N.ar    1  UNL1       -0.1632
      3 N         141.2834  142.8536  159.1954 N.ar    1  UNL1       -0.2290
      4 C         142.4855  141.9563  159.1864 C.ar    1  UNL1        0.0822
      5 C         142.5078  141.1983  160.4806 C.ar    1  UNL1        0.0413
      6 C         140.8739  143.7899  158.0974 C.ar    1  UNL1        0.0933
      7 C         141.3705  145.2053  158.0946 C.ar    1  UNL1        0.0209
      8 C         140.9610  146.1416  156.9966 C.ar    1  UNL1        0.0130
      9 C         140.0549  145.6625  155.9014 C.ar    1  UNL1        0.0586
     10 CL        139.6454  146.5989  154.8034 Cl      1  UNL1       -0.0822
     11 C         139.5583  144.2472  155.9042 C.ar    1  UNL1        0.0243
     12 C         139.9678  143.3109  157.0022 C.ar    1  UNL1        0.0761
     13 CL        139.4712  141.8954  157.0050 Cl      1  UNL1       -0.0806
     14 C         143.4891  141.8379  158.0780 C.ar    1  UNL1        0.0176
     15 C         143.1284  141.1162  156.8135 C.ar    1  UNL1        0.0024
     16 C         144.1320  140.9978  155.7050 C.ar    1  UNL1        0.0114
     17 C         145.4964  141.6012  155.8610 C.ar    1  UNL1        0.0577
     18 CL        146.5000  141.4828  154.7525 Cl      1  UNL1       -0.0822
     19 C         145.8572  142.3231  157.1255 C.ar    1  UNL1        0.0114
     20 C         144.8535  142.4414  158.2339 C.ar    1  UNL1        0.0024
     21 C         140.0260  139.7649  164.4398 C.ar    1  UNL1        0.1185
     22 N         140.7485  140.9222  165.0633 N.ar    1  UNL1       -0.1450
     23 N         141.3209  141.7605  163.9591 N.ar    1  UNL1       -0.1395
     24 C         140.9522  141.1215  162.6531 C.ar    1  UNL1        0.1525
     25 S         140.1520  139.8881  162.9502 S.2     1  UNL1       -0.0480
     26 C         139.3043  138.6757  165.1765 C.3     1  UNL1        0.1301
     27 C         138.4847  139.7054  165.8960 C.3     1  UNL1        0.0145
     28 C         137.7629  138.6162  166.6328 C.3     1  UNL1        0.0014
     29 C         138.5826  137.5865  165.9132 C.3     1  UNL1        0.0145
     30 F         140.9437  136.6161  163.7375 F       1  UNL1       -0.1696
     31 C         140.1240  137.6459  164.4569 C.3     1  UNL1        0.4025
     32 F         138.9297  137.2737  163.6291 F       1  UNL1       -0.1696
     33 F         141.3182  138.0180  165.2848 F       1  UNL1       -0.1696
     34 C         143.5375  140.1888  160.8935 C.3     1  UNL1        0.1587
     35 N         144.3260  140.3938  162.1529 N.ar    1  UNL1       -0.2254
     36 C         144.3176  139.4958  163.3544 C.ar    1  UNL1        0.1975
     37 N         145.2477  140.0798  164.3761 N.ar    1  UNL1       -0.2007
     38 C         145.8309  141.3387  163.8061 C.ar    1  UNL1        0.2210
     39 N         145.2613  141.5328  162.4321 N.ar    1  UNL1       -0.1448
@<TRIPOS>BOND
     1    30    31    1
     2    31    32    1
     3    31    33    1
     4    31    26    1
     5    26    21    1
     6    21    22   ar
     7    22    23   ar
     8    23    24   ar
     9    24     1    1
    10     1     2   ar
    11     2     3   ar
    12     3     6    1
    13     6     7   ar
    14     7     8   ar
    15     8     9   ar
    16     9    10    1
    17     9    11   ar
    18    11    12   ar
    19    12    13    1
    20     3     4   ar
    21     4    14    1
    22    14    15   ar
    23    15    16   ar
    24    16    17   ar
    25    17    18    1
    26    17    19   ar
    27    19    20   ar
    28     4     5   ar
    29     5    34    1
    30    34    35    1
    31    35    36   ar
    32    36    37   ar
    33    37    38   ar
    34    38    39   ar
    35    24    25   ar
    36    26    27    1
    37    27    28    1
    38    28    29    1
    39    29    26    1
    40    25    21   ar
    41     5     1   ar
    42    39    35   ar
    43    12     6   ar
    44    20    14   ar
@<TRIPOS>MOLECULE
*****
 39 44 0 0 0
SMALL
GASTEIGER

@<TRIPOS>ATOM
      1 C         140.3183  141.1577  161.0659 C.ar    1  UNL1        0.1261
      2 N         139.7696  142.2742  160.2279 N.ar    1  UNL1       -0.1632
      3 N         140.7415  142.5406  159.1168 N.ar    1  UNL1       -0.2290
      4 C         141.8908  141.5887  159.2681 C.ar    1  UNL1        0.0822
      5 C         141.6293  140.7340  160.4727 C.ar    1  UNL1        0.0413
      6 C         140.5905  143.5770  158.0429 C.ar    1  UNL1        0.0933
      7 C         140.2028  143.1662  156.6534 C.ar    1  UNL1        0.0209
      8 C         140.0519  144.2026  155.5796 C.ar    1  UNL1        0.0130
      9 C         140.2887  145.6498  155.8953 C.ar    1  UNL1        0.0586
     10 CL        140.1377  146.6862  154.8214 Cl      1  UNL1       -0.0822
     11 C         140.6764  146.0605  157.2849 C.ar    1  UNL1        0.0243
     12 C         140.8273  145.0242  158.3587 C.ar    1  UNL1        0.0761
     13 CL        141.2151  145.4349  159.7483 Cl      1  UNL1       -0.0806
     14 C         143.0910  141.5060  158.3722 C.ar    1  UNL1        0.0176
     15 C         143.1872  140.4163  157.3460 C.ar    1  UNL1        0.0024
     16 C         144.3874  140.3336  156.4500 C.ar    1  UNL1        0.0114
     17 C         145.4914  141.3407  156.5802 C.ar    1  UNL1        0.0577
     18 CL        146.6915  141.2580  155.6843 Cl      1  UNL1       -0.0822
     19 C         145.3952  142.4305  157.6065 C.ar    1  UNL1        0.0114
     20 C         144.1950  142.5131  158.5024 C.ar    1  UNL1        0.0024
     21 C         139.2008  139.9716  164.5887 C.ar    1  UNL1        0.1185
     22 N         138.1431  139.3510  163.7248 N.ar    1  UNL1       -0.1450
     23 N         138.4330  139.7198  162.3001 N.ar    1  UNL1       -0.1395
     24 C         139.6698  140.5683  162.2833 C.ar    1  UNL1        0.1525
     25 S         140.1444  140.7239  163.6978 S.2     1  UNL1       -0.0480
     26 C         139.2980  139.8595  166.0813 C.3     1  UNL1        0.1301
     27 C         139.8722  141.2436  166.1478 C.3     1  UNL1        0.0145
     28 C         139.9694  141.1316  167.6405 C.3     1  UNL1        0.0014
     29 C         139.3951  139.7475  167.5740 C.3     1  UNL1        0.0145
     30 F         138.1494  137.0912  165.9483 F       1  UNL1       -0.1696
     31 C         138.7237  138.4753  166.0148 C.3     1  UNL1        0.4025
     32 F         137.4360  138.9817  166.5942 F       1  UNL1       -0.1696
     33 F         140.0112  137.9690  165.4354 F       1  UNL1       -0.1696
     34 C         142.5220  139.6465  160.9928 C.3     1  UNL1        0.1587
     35 N         143.5869  139.9676  161.9992 N.ar    1  UNL1       -0.2254
     36 C         144.5893  141.0789  161.8981 C.ar    1  UNL1        0.1975
     37 N         145.4584  141.0319  163.1198 N.ar    1  UNL1       -0.2007
     38 C         144.9930  139.8915  163.9760 C.ar    1  UNL1        0.2210
     39 N         143.8364  139.2338  163.2835 N.ar    1  UNL1       -0.1448
@<TRIPOS>BOND
     1    30    31    1
     2    31    32    1
     3    31    33    1
     4    31    26    1
     5    26    21    1
     6    21    22   ar
     7    22    23   ar
     8    23    24   ar
     9    24     1    1
    10     1     2   ar
    11     2     3   ar
    12     3     6    1
    13     6     7   ar
    14     7     8   ar
    15     8     9   ar
    16     9    10    1
    17     9    11   ar
    18    11    12   ar
    19    12    13    1
    20     3     4   ar
    21     4    14    1
    22    14    15   ar
    23    15    16   ar
    24    16    17   ar
    25    17    18    1
    26    17    19   ar
    27    19    20   ar
    28     4     5   ar
    29     5    34    1
    30    34    35    1
    31    35    36   ar
    32    36    37   ar
    33    37    38   ar
    34    38    39   ar
    35    24    25   ar
    36    26    27    1
    37    27    28    1
    38    28    29    1
    39    29    26    1
    40    25    21   ar
    41     5     1   ar
    42    39    35   ar
    43    12     6   ar
    44    20    14   ar
@<TRIPOS>MOLECULE
*****
 39 44 0 0 0
SMALL
GASTEIGER

@<TRIPOS>ATOM
      1 C         140.5472  141.5219  159.3955 C.ar    1  UNL1        0.1261
      2 N         141.6809  142.0478  158.5660 N.ar    1  UNL1       -0.1632
      3 N         142.1956  140.9226  157.7181 N.ar    1  UNL1       -0.2290
      4 C         141.3801  139.7013  158.0236 C.ar    1  UNL1        0.0822
      5 C         140.3612  140.0716  159.0603 C.ar    1  UNL1        0.0413
      6 C         143.3273  141.0043  156.7369 C.ar    1  UNL1        0.0933
      7 C         144.7456  140.9373  157.2205 C.ar    1  UNL1        0.0209
      8 C         145.8772  141.0190  156.2393 C.ar    1  UNL1        0.0130
      9 C         145.5905  141.1678  154.7745 C.ar    1  UNL1        0.0586
     10 CL        146.7222  141.2495  153.7933 Cl      1  UNL1       -0.0822
     11 C         144.1723  141.2349  154.2909 C.ar    1  UNL1        0.0243
     12 C         143.0407  141.1532  155.2721 C.ar    1  UNL1        0.0761
     13 CL        141.6223  141.2202  154.7885 Cl      1  UNL1       -0.0806
     14 C         141.5530  138.3474  157.4016 C.ar    1  UNL1        0.0176
     15 C         142.6836  137.4618  157.8346 C.ar    1  UNL1        0.0024
     16 C         142.8565  136.1079  157.2126 C.ar    1  UNL1        0.0114
     17 C         141.8988  135.6394  156.1575 C.ar    1  UNL1        0.0577
     18 CL        142.0717  134.2855  155.5354 Cl      1  UNL1       -0.0822
     19 C         140.7681  136.5249  155.7243 C.ar    1  UNL1        0.0114
     20 C         140.5953  137.8789  156.3464 C.ar    1  UNL1        0.0024
     21 C         139.0959  143.5569  162.3650 C.ar    1  UNL1        0.1185
     22 N         137.9044  143.4792  161.4571 N.ar    1  UNL1       -0.1450
     23 N         138.3031  142.7075  160.2343 N.ar    1  UNL1       -0.1395
     24 C         139.7409  142.3081  160.3864 C.ar    1  UNL1        0.1525
     25 S         140.2309  142.8331  161.7033 S.2     1  UNL1       -0.0480
     26 C         139.1440  144.2386  163.7002 C.3     1  UNL1        0.1301
     27 C         137.8191  143.6327  164.0574 C.3     1  UNL1        0.0145
     28 C         137.8672  144.3144  165.3927 C.3     1  UNL1        0.0014
     29 C         139.1920  144.9204  165.0356 C.3     1  UNL1        0.0145
     30 F         141.7937  145.4507  162.9861 F       1  UNL1       -0.1696
     31 C         140.4689  144.8447  163.3432 C.3     1  UNL1        0.4025
     32 F         139.7830  145.7889  162.4007 F       1  UNL1       -0.1696
     33 F         141.1547  143.9005  164.2856 F       1  UNL1       -0.1696
     34 C         139.3365  139.1531  159.6570 C.3     1  UNL1        0.1587
     35 N         139.5940  138.5033  160.9842 N.ar    1  UNL1       -0.2254
     36 C         138.5579  138.1566  162.0120 C.ar    1  UNL1        0.1975
     37 N         139.2563  137.5251  163.1796 N.ar    1  UNL1       -0.2007
     38 C         140.7240  137.4815  162.8735 C.ar    1  UNL1        0.2210
     39 N         140.9328  138.0860  161.5166 N.ar    1  UNL1       -0.1448
@<TRIPOS>BOND
     1    30    31    1
     2    31    32    1
     3    31    33    1
     4    31    26    1
     5    26    21    1
     6    21    22   ar
     7    22    23   ar
     8    23    24   ar
     9    24     1    1
    10     1     2   ar
    11     2     3   ar
    12     3     6    1
    13     6     7   ar
    14     7     8   ar
    15     8     9   ar
    16     9    10    1
    17     9    11   ar
    18    11    12   ar
    19    12    13    1
    20     3     4   ar
    21     4    14    1
    22    14    15   ar
    23    15    16   ar
    24    16    17   ar
    25    17    18    1
    26    17    19   ar
    27    19    20   ar
    28     4     5   ar
    29     5    34    1
    30    34    35    1
    31    35    36   ar
    32    36    37   ar
    33    37    38   ar
    34    38    39   ar
    35    24    25   ar
    36    26    27    1
    37    27    28    1
    38    28    29    1
    39    29    26    1
    40    25    21   ar
    41     5     1   ar
    42    39    35   ar
    43    12     6   ar
    44    20    14   ar
@<TRIPOS>MOLECULE
*****
 39 44 0 0 0
SMALL
GASTEIGER

@<TRIPOS>ATOM
      1 C         142.2993  138.0870  158.6297 C.ar    1  UNL1        0.1261
      2 N         142.8818  137.7392  159.9675 N.ar    1  UNL1       -0.1632
      3 N         142.2178  138.6008  161.0003 N.ar    1  UNL1       -0.2290
      4 C         141.2250  139.4812  160.3008 C.ar    1  UNL1        0.0822
      5 C         141.2754  139.1637  158.8357 C.ar    1  UNL1        0.0413
      6 C         142.4976  138.5849  162.4740 C.ar    1  UNL1        0.0933
      7 C         141.6236  137.7859  163.3947 C.ar    1  UNL1        0.0209
      8 C         141.9034  137.7700  164.8682 C.ar    1  UNL1        0.0130
      9 C         143.0571  138.5531  165.4211 C.ar    1  UNL1        0.0586
     10 CL        143.3368  138.5372  166.8948 Cl      1  UNL1       -0.0822
     11 C         143.9310  139.3521  164.5004 C.ar    1  UNL1        0.0243
     12 C         143.6513  139.3680  163.0269 C.ar    1  UNL1        0.0761
     13 CL        144.5253  140.1670  162.1061 Cl      1  UNL1       -0.0806
     14 C         140.3377  140.5002  160.9521 C.ar    1  UNL1        0.0176
     15 C         138.9151  140.1558  161.2802 C.ar    1  UNL1        0.0024
     16 C         138.0278  141.1748  161.9315 C.ar    1  UNL1        0.0114
     17 C         138.5630  142.5383  162.2548 C.ar    1  UNL1        0.0577
     18 CL        137.6756  143.5573  162.9061 Cl      1  UNL1       -0.0822
     19 C         139.9856  142.8828  161.9267 C.ar    1  UNL1        0.0114
     20 C         140.8729  141.8637  161.2754 C.ar    1  UNL1        0.0024
     21 C         142.6902  136.0222  155.3664 C.ar    1  UNL1        0.1185
     22 N         143.8153  137.0041  155.2246 N.ar    1  UNL1       -0.1450
     23 N         143.8058  137.8970  156.4298 N.ar    1  UNL1       -0.1395
     24 C         142.6748  137.4671  157.3164 C.ar    1  UNL1        0.1525
     25 S         141.9854  136.3083  156.6592 S.2     1  UNL1       -0.0480
     26 C         142.3327  134.9435  154.3873 C.3     1  UNL1        0.1301
     27 C         142.0877  135.9818  153.3329 C.3     1  UNL1        0.0145
     28 C         141.7302  134.9031  152.3537 C.3     1  UNL1        0.0014
     29 C         141.9751  133.8648  153.4082 C.3     1  UNL1        0.0145
     30 F         142.8226  132.8668  156.4962 F       1  UNL1       -0.1696
     31 C         142.5776  133.9051  155.4418 C.3     1  UNL1        0.4025
     32 F         141.1014  133.6581  155.5415 F       1  UNL1       -0.1696
     33 F         144.0538  134.1522  155.3421 F       1  UNL1       -0.1696
     34 C         140.4472  139.8094  157.7647 C.3     1  UNL1        0.1587
     35 N         140.3731  141.3048  157.6732 N.ar    1  UNL1       -0.2254
     36 C         141.4960  142.2211  157.2865 C.ar    1  UNL1        0.1975
     37 N         140.9801  143.6291  157.3266 N.ar    1  UNL1       -0.2007
     38 C         139.5383  143.5828  157.7380 C.ar    1  UNL1        0.2210
     39 N         139.1632  142.1463  157.9522 N.ar    1  UNL1       -0.1448
@<TRIPOS>BOND
     1    30    31    1
     2    31    32    1
     3    31    33    1
     4    31    26    1
     5    26    21    1
     6    21    22   ar
     7    22    23   ar
     8    23    24   ar
     9    24     1    1
    10     1     2   ar
    11     2     3   ar
    12     3     6    1
    13     6     7   ar
    14     7     8   ar
    15     8     9   ar
    16     9    10    1
    17     9    11   ar
    18    11    12   ar
    19    12    13    1
    20     3     4   ar
    21     4    14    1
    22    14    15   ar
    23    15    16   ar
    24    16    17   ar
    25    17    18    1
    26    17    19   ar
    27    19    20   ar
    28     4     5   ar
    29     5    34    1
    30    34    35    1
    31    35    36   ar
    32    36    37   ar
    33    37    38   ar
    34    38    39   ar
    35    24    25   ar
    36    26    27    1
    37    27    28    1
    38    28    29    1
    39    29    26    1
    40    25    21   ar
    41     5     1   ar
    42    39    35   ar
    43    12     6   ar
    44    20    14   ar
@<TRIPOS>MOLECULE
*****
 39 44 0 0 0
SMALL
GASTEIGER

@<TRIPOS>ATOM
      1 C         140.3410  140.8739  160.9774 C.ar    1  UNL1        0.1261
      2 N         141.5071  140.3335  160.2040 N.ar    1  UNL1       -0.1632
      3 N         141.7810  141.2691  159.0641 N.ar    1  UNL1       -0.2290
      4 C         140.7841  142.3879  159.1329 C.ar    1  UNL1        0.0822
      5 C         139.8942  142.1437  160.3154 C.ar    1  UNL1        0.0413
      6 C         142.8619  141.1134  158.0357 C.ar    1  UNL1        0.0933
      7 C         142.6155  140.2881  156.8077 C.ar    1  UNL1        0.0209
      8 C         143.6964  140.1324  155.7795 C.ar    1  UNL1        0.0130
      9 C         145.0237  140.8021  155.9792 C.ar    1  UNL1        0.0586
     10 CL        146.1046  140.6464  154.9509 Cl      1  UNL1       -0.0822
     11 C         145.2701  141.6274  157.2072 C.ar    1  UNL1        0.0243
     12 C         144.1892  141.7831  158.2355 C.ar    1  UNL1        0.0761
     13 CL        144.4355  142.6085  159.4636 Cl      1  UNL1       -0.0806
     14 C         140.6931  143.5473  158.1856 C.ar    1  UNL1        0.0176
     15 C         139.7220  143.5079  157.0431 C.ar    1  UNL1        0.0024
     16 C         139.6310  144.6673  156.0957 C.ar    1  UNL1        0.0114
     17 C         140.5112  145.8662  156.2909 C.ar    1  UNL1        0.0577
     18 CL        140.4202  147.0256  155.3435 Cl      1  UNL1       -0.0822
     19 C         141.4824  145.9056  157.4334 C.ar    1  UNL1        0.0114
     20 C         141.5733  144.7461  158.3807 C.ar    1  UNL1        0.0024
     21 C         139.2390  139.7107  164.5126 C.ar    1  UNL1        0.1185
     22 N         138.3365  138.8874  163.6422 N.ar    1  UNL1       -0.1450
     23 N         138.6395  139.2229  162.2120 N.ar    1  UNL1       -0.1395
     24 C         139.7292  140.2536  162.1985 C.ar    1  UNL1        0.1525
     25 S         140.0997  140.5551  163.6204 S.2     1  UNL1       -0.0480
     26 C         139.2745  139.6928  166.0121 C.3     1  UNL1        0.1301
     27 C         139.8502  141.0779  166.0150 C.3     1  UNL1        0.0145
     28 C         139.8858  141.0600  167.5145 C.3     1  UNL1        0.0014
     29 C         139.3100  139.6750  167.5116 C.3     1  UNL1        0.0145
     30 F         138.1228  136.9227  166.0064 F       1  UNL1       -0.1696
     31 C         138.6987  138.3077  166.0092 C.3     1  UNL1        0.4025
     32 F         139.9888  137.7725  165.4623 F       1  UNL1       -0.1696
     33 F         137.4086  138.8429  166.5561 F       1  UNL1       -0.1696
     34 C         138.7570  143.0159  160.7582 C.3     1  UNL1        0.1587
     35 N         138.7671  143.6222  162.1302 N.ar    1  UNL1       -0.2254
     36 C         139.9106  144.3618  162.7589 C.ar    1  UNL1        0.1975
     37 N         139.4857  144.7921  164.1316 N.ar    1  UNL1       -0.2007
     38 C         138.0795  144.3184  164.3512 C.ar    1  UNL1        0.2210
     39 N         137.6354  143.5954  163.1143 N.ar    1  UNL1       -0.1448
@<TRIPOS>BOND
     1    30    31    1
     2    31    32    1
     3    31    33    1
     4    31    26    1
     5    26    21    1
     6    21    22   ar
     7    22    23   ar
     8    23    24   ar
     9    24     1    1
    10     1     2   ar
    11     2     3   ar
    12     3     6    1
    13     6     7   ar
    14     7     8   ar
    15     8     9   ar
    16     9    10    1
    17     9    11   ar
    18    11    12   ar
    19    12    13    1
    20     3     4   ar
    21     4    14    1
    22    14    15   ar
    23    15    16   ar
    24    16    17   ar
    25    17    18    1
    26    17    19   ar
    27    19    20   ar
    28     4     5   ar
    29     5    34    1
    30    34    35    1
    31    35    36   ar
    32    36    37   ar
    33    37    38   ar
    34    38    39   ar
    35    24    25   ar
    36    26    27    1
    37    27    28    1
    38    28    29    1
    39    29    26    1
    40    25    21   ar
    41     5     1   ar
    42    39    35   ar
    43    12     6   ar
    44    20    14   ar
@<TRIPOS>MOLECULE
*****
 39 44 0 0 0
SMALL
GASTEIGER

@<TRIPOS>ATOM
      1 C         141.6250  138.6784  159.6704 C.ar    1  UNL1        0.1261
      2 N         140.5789  138.2945  160.6744 N.ar    1  UNL1       -0.1632
      3 N         140.8397  139.0664  161.9338 N.ar    1  UNL1       -0.2290
      4 C         142.0471  139.9274  161.7081 C.ar    1  UNL1        0.0822
      5 C         142.5325  139.6876  160.3092 C.ar    1  UNL1        0.0413
      6 C         140.0345  138.9907  163.1972 C.ar    1  UNL1        0.0933
      7 C         139.0424  140.0684  163.5199 C.ar    1  UNL1        0.0209
      8 C         138.2373  139.9927  164.7833 C.ar    1  UNL1        0.0130
      9 C         138.4243  138.8392  165.7238 C.ar    1  UNL1        0.0586
     10 CL        137.6191  138.7635  166.9871 Cl      1  UNL1       -0.0822
     11 C         139.4164  137.7615  165.4010 C.ar    1  UNL1        0.0243
     12 C         140.2215  137.8373  164.1377 C.ar    1  UNL1        0.0761
     13 CL        141.2137  136.7595  163.8148 Cl      1  UNL1       -0.0806
     14 C         142.6613  140.8638  162.7060 C.ar    1  UNL1        0.0176
     15 C         143.8639  140.4366  163.4941 C.ar    1  UNL1        0.0024
     16 C         144.4781  141.3731  164.4920 C.ar    1  UNL1        0.0114
     17 C         143.8896  142.7367  164.7019 C.ar    1  UNL1        0.0577
     18 CL        144.5038  143.6732  165.6998 Cl      1  UNL1       -0.0822
     19 C         142.6869  143.1640  163.9138 C.ar    1  UNL1        0.0114
     20 C         142.0728  142.2275  162.9159 C.ar    1  UNL1        0.0024
     21 C         141.1805  137.3742  156.0417 C.ar    1  UNL1        0.1185
     22 N         142.6689  137.2816  156.2027 N.ar    1  UNL1       -0.1450
     23 N         143.0166  137.7589  157.5816 N.ar    1  UNL1       -0.1395
     24 C         141.7431  138.1464  158.2728 C.ar    1  UNL1        0.1525
     25 S         140.6083  137.9087  157.3211 S.2     1  UNL1       -0.0480
     26 C         140.4011  136.9982  154.8165 C.3     1  UNL1        0.1301
     27 C         139.3036  137.9346  155.2274 C.3     1  UNL1        0.0145
     28 C         138.5242  137.5587  154.0021 C.3     1  UNL1        0.0014
     29 C         139.6216  136.6223  153.5913 C.3     1  UNL1        0.0145
     30 F         142.5959  135.1254  153.9948 F       1  UNL1       -0.1696
     31 C         141.4985  136.0618  154.4057 C.3     1  UNL1        0.4025
     32 F         140.9972  135.0438  155.3867 F       1  UNL1       -0.1696
     33 F         141.9998  137.0798  153.4247 F       1  UNL1       -0.1696
     34 C         143.7172  140.3421  159.6627 C.3     1  UNL1        0.1587
     35 N         143.5374  141.6016  158.8682 N.ar    1  UNL1       -0.2254
     36 C         143.3304  142.9767  159.4305 C.ar    1  UNL1        0.1975
     37 N         143.1981  143.9322  158.2818 N.ar    1  UNL1       -0.2007
     38 C         143.3232  143.1476  157.0095 C.ar    1  UNL1        0.2210
     39 N         143.5329  141.7072  157.3719 N.ar    1  UNL1       -0.1448
@<TRIPOS>BOND
     1    30    31    1
     2    31    32    1
     3    31    33    1
     4    31    26    1
     5    26    21    1
     6    21    22   ar
     7    22    23   ar
     8    23    24   ar
     9    24     1    1
    10     1     2   ar
    11     2     3   ar
    12     3     6    1
    13     6     7   ar
    14     7     8   ar
    15     8     9   ar
    16     9    10    1
    17     9    11   ar
    18    11    12   ar
    19    12    13    1
    20     3     4   ar
    21     4    14    1
    22    14    15   ar
    23    15    16   ar
    24    16    17   ar
    25    17    18    1
    26    17    19   ar
    27    19    20   ar
    28     4     5   ar
    29     5    34    1
    30    34    35    1
    31    35    36   ar
    32    36    37   ar
    33    37    38   ar
    34    38    39   ar
    35    24    25   ar
    36    26    27    1
    37    27    28    1
    38    28    29    1
    39    29    26    1
    40    25    21   ar
    41     5     1   ar
    42    39    35   ar
    43    12     6   ar
    44    20    14   ar
@<TRIPOS>MOLECULE
*****
 39 44 0 0 0
SMALL
GASTEIGER

@<TRIPOS>ATOM
      1 C         139.0564  139.8308  159.0865 C.ar    1  UNL1        0.1261
      2 N         138.2956  139.5383  160.3457 N.ar    1  UNL1       -0.1632
      3 N         139.2575  139.6060  161.4947 N.ar    1  UNL1       -0.2290
      4 C         140.6127  139.9403  160.9456 C.ar    1  UNL1        0.0822
      5 C         140.4885  140.0793  159.4572 C.ar    1  UNL1        0.0413
      6 C         138.9229  139.3791  162.9393 C.ar    1  UNL1        0.0933
      7 C         139.0787  138.0135  163.5397 C.ar    1  UNL1        0.0209
      8 C         138.7441  137.7867  164.9842 C.ar    1  UNL1        0.0130
      9 C         138.2536  138.9256  165.8282 C.ar    1  UNL1        0.0586
     10 CL        137.9190  138.6987  167.2728 Cl      1  UNL1       -0.0822
     11 C         138.0978  140.2912  165.2278 C.ar    1  UNL1        0.0243
     12 C         138.4324  140.5180  163.7833 C.ar    1  UNL1        0.0761
     13 CL        138.2765  141.8838  163.1827 Cl      1  UNL1       -0.0806
     14 C         141.8713  140.1065  161.7446 C.ar    1  UNL1        0.0176
     15 C         142.7930  138.9400  161.9434 C.ar    1  UNL1        0.0024
     16 C         144.0516  139.1062  162.7424 C.ar    1  UNL1        0.0114
     17 C         144.3885  140.4389  163.3426 C.ar    1  UNL1        0.0577
     18 CL        145.6471  140.6051  164.1416 Cl      1  UNL1       -0.0822
     19 C         143.4667  141.6056  163.1438 C.ar    1  UNL1        0.0114
     20 C         142.2082  141.4393  162.3448 C.ar    1  UNL1        0.0024
     21 C         137.2761  140.5814  155.7201 C.ar    1  UNL1        0.1185
     22 N         137.9372  139.2706  155.4124 N.ar    1  UNL1       -0.1450
     23 N         138.6845  138.8299  156.6360 N.ar    1  UNL1       -0.1395
     24 C         138.4853  139.8683  157.6999 C.ar    1  UNL1        0.1525
     25 S         137.6149  140.9508  157.1339 S.2     1  UNL1       -0.0480
     26 C         136.4255  141.3823  154.7793 C.3     1  UNL1        0.1301
     27 C         137.5244  142.3947  154.6477 C.3     1  UNL1        0.0145
     28 C         136.6738  143.1956  153.7068 C.3     1  UNL1        0.0014
     29 C         135.5750  142.1831  153.8384 C.3     1  UNL1        0.0145
     30 F         134.2277  139.3573  155.0425 F       1  UNL1       -0.1696
     31 C         135.3266  140.3697  154.9109 C.3     1  UNL1        0.4025
     32 F         135.7712  139.7212  153.6334 F       1  UNL1       -0.1696
     33 F         134.8821  141.0183  156.1882 F       1  UNL1       -0.1696
     34 C         141.6009  140.4088  158.5066 C.3     1  UNL1        0.1587
     35 N         142.3034  139.3106  157.7646 N.ar    1  UNL1       -0.2254
     36 C         143.3972  139.4890  156.7537 C.ar    1  UNL1        0.1975
     37 N         143.8053  138.1299  156.2676 N.ar    1  UNL1       -0.2007
     38 C         142.9638  137.1116  156.9781 C.ar    1  UNL1        0.2210
     39 N         142.0356  137.8413  157.9033 N.ar    1  UNL1       -0.1448
@<TRIPOS>BOND
     1    30    31    1
     2    31    32    1
     3    31    33    1
     4    31    26    1
     5    26    21    1
     6    21    22   ar
     7    22    23   ar
     8    23    24   ar
     9    24     1    1
    10     1     2   ar
    11     2     3   ar
    12     3     6    1
    13     6     7   ar
    14     7     8   ar
    15     8     9   ar
    16     9    10    1
    17     9    11   ar
    18    11    12   ar
    19    12    13    1
    20     3     4   ar
    21     4    14    1
    22    14    15   ar
    23    15    16   ar
    24    16    17   ar
    25    17    18    1
    26    17    19   ar
    27    19    20   ar
    28     4     5   ar
    29     5    34    1
    30    34    35    1
    31    35    36   ar
    32    36    37   ar
    33    37    38   ar
    34    38    39   ar
    35    24    25   ar
    36    26    27    1
    37    27    28    1
    38    28    29    1
    39    29    26    1
    40    25    21   ar
    41     5     1   ar
    42    39    35   ar
    43    12     6   ar
    44    20    14   ar
