@<TRIPOS>MOLECULE
*****
 31 33 0 0 0
SMALL
GASTEIGER

@<TRIPOS>ATOM
      1 C         143.1463  140.3041  164.8370 C.3     1  UNL1        0.1143
      2 C         142.2063  139.1633  164.5825 C.3     1  UNL1        0.0690
      3 C         141.1012  138.1724  164.7989 C.3     1  UNL1        0.0485
      4 C         140.7978  137.1459  163.7479 C.3     1  UNL1        0.1436
      5 O         141.5996  137.1104  162.4807 O.3     1  UNL1       -0.3537
      6 C         142.7047  138.1013  162.2643 C.3     1  UNL1        0.1436
      7 C         143.0080  139.1278  163.3153 C.3     1  UNL1        0.0485
      8 N         140.7805  140.4585  168.6494 N.3     1  UNL1       -0.2703
      9 C         142.2370  140.1852  168.4172 C.3     1  UNL1        0.0897
     10 C         142.7122  139.7535  167.0615 C.3     1  UNL1        0.0896
     11 N         141.7310  139.5950  165.9381 N.3     1  UNL1       -0.2710
     12 C         140.2746  139.8683  166.1703 C.3     1  UNL1        0.0896
     13 C         139.7993  140.3000  167.5260 C.3     1  UNL1        0.0897
     14 C         140.3052  140.8902  170.0050 C.3     1  UNL1        0.0722
     15 C         140.4714  143.4375  169.5219 C.3     1  UNL1        0.0015
     16 C         139.8009  142.2874  170.2131 C.3     1  UNL1        0.0173
     17 N         143.0264  141.5675  164.0372 N.am    1  UNL1       -0.2425
     18 C         144.2607  142.3067  163.6130 C.2     1  UNL1        0.2304
     19 O         145.6150  141.7826  163.9886 O.2     1  UNL1       -0.2745
     20 C         141.6720  142.0916  163.6616 C.ar    1  UNL1        0.1373
     21 C         141.0658  141.7241  162.3397 C.ar    1  UNL1        0.0347
     22 C         139.7114  142.2482  161.9641 C.ar    1  UNL1        0.0044
     23 C         138.9633  143.1397  162.9104 C.ar    1  UNL1        0.0232
     24 C         139.5696  143.5071  164.2323 C.ar    1  UNL1        0.1540
     25 N         140.9239  142.9831  164.6079 N.ar    1  UNL1       -0.2263
     26 C         138.8214  144.3987  165.1786 C.3     1  UNL1        0.4349
     27 F         138.0731  145.2903  166.1247 F       1  UNL1       -0.1644
     28 F         139.7216  143.9663  166.2978 F       1  UNL1       -0.1644
     29 F         137.9211  144.8310  164.0593 F       1  UNL1       -0.1644
     30 C         144.1408  143.5700  162.8132 C.3     1  UNL1        0.0857
     31 C         143.8716  144.8732  163.5054 C.3     1  UNL1        0.0101
@<TRIPOS>BOND
     1    15    16    1
     2    16    14    1
     3    14     8    1
     4     8     9    1
     5     9    10    1
     6    10    11    1
     7    11     2    1
     8     2     1    1
     9     1    17    1
    10    17    18   am
    11    18    19    2
    12    18    30    1
    13    30    31    1
    14    17    20    1
    15    20    21   ar
    16    21    22   ar
    17    22    23   ar
    18    23    24   ar
    19    24    26    1
    20    26    27    1
    21    26    28    1
    22    26    29    1
    23    24    25   ar
    24     2     3    1
    25     3     4    1
    26     4     5    1
    27     5     6    1
    28     6     7    1
    29    11    12    1
    30    12    13    1
    31    13     8    1
    32     7     2    1
    33    25    20   ar
@<TRIPOS>MOLECULE
*****
 31 33 0 0 0
SMALL
GASTEIGER

@<TRIPOS>ATOM
      1 C         142.1874  142.8110  164.7307 C.3     1  UNL1        0.1143
      2 C         143.4545  142.0634  164.4384 C.3     1  UNL1        0.0690
      3 C         144.5928  141.1004  164.6027 C.3     1  UNL1        0.0485
      4 C         145.6620  141.0170  163.5539 C.3     1  UNL1        0.1436
      5 O         145.5929  141.8966  162.3409 O.3     1  UNL1       -0.3537
      6 C         144.4546  142.8596  162.1766 C.3     1  UNL1        0.1436
      7 C         143.3854  142.9430  163.2254 C.3     1  UNL1        0.0485
      8 N         142.3417  140.2035  168.3821 N.3     1  UNL1       -0.2703
      9 C         142.4422  141.6949  168.2580 C.3     1  UNL1        0.0897
     10 C         142.8132  142.3149  166.9435 C.3     1  UNL1        0.0896
     11 N         143.0836  141.4434  165.7530 N.3     1  UNL1       -0.2710
     12 C         142.9831  139.9520  165.8770 C.3     1  UNL1        0.0896
     13 C         142.6122  139.3320  167.1916 C.3     1  UNL1        0.0897
     14 C         141.9708  139.5835  169.6966 C.3     1  UNL1        0.0722
     15 C         139.4527  140.2008  169.5290 C.3     1  UNL1        0.0015
     16 C         140.6761  139.9495  170.3597 C.3     1  UNL1        0.0173
     17 N         140.9310  142.4793  163.9814 N.am    1  UNL1       -0.2425
     18 C         140.1154  143.5754  163.3624 C.2     1  UNL1        0.2304
     19 O         140.5562  145.0033  163.4926 O.2     1  UNL1       -0.2745
     20 C         140.4903  141.0515  163.8512 C.ar    1  UNL1        0.1373
     21 C         140.9133  140.2415  162.6616 C.ar    1  UNL1        0.0347
     22 C         140.4725  138.8137  162.5314 C.ar    1  UNL1        0.0044
     23 C         139.6088  138.1958  163.5907 C.ar    1  UNL1        0.0232
     24 C         139.1859  139.0057  164.7803 C.ar    1  UNL1        0.1540
     25 N         139.6266  140.4336  164.9105 N.ar    1  UNL1       -0.2263
     26 C         138.3222  138.3877  165.8396 C.3     1  UNL1        0.4349
     27 F         137.4585  137.7696  166.8989 F       1  UNL1       -0.1644
     28 F         137.8199  139.7479  166.2237 F       1  UNL1       -0.1644
     29 F         138.8245  137.0274  165.4555 F       1  UNL1       -0.1644
     30 C         138.8590  143.2438  162.6131 C.3     1  UNL1        0.0857
     31 C         137.5619  143.0964  163.3517 C.3     1  UNL1        0.0101
@<TRIPOS>BOND
     1    15    16    1
     2    16    14    1
     3    14     8    1
     4     8     9    1
     5     9    10    1
     6    10    11    1
     7    11     2    1
     8     2     1    1
     9     1    17    1
    10    17    18   am
    11    18    19    2
    12    18    30    1
    13    30    31    1
    14    17    20    1
    15    20    21   ar
    16    21    22   ar
    17    22    23   ar
    18    23    24   ar
    19    24    26    1
    20    26    27    1
    21    26    28    1
    22    26    29    1
    23    24    25   ar
    24     2     3    1
    25     3     4    1
    26     4     5    1
    27     5     6    1
    28     6     7    1
    29    11    12    1
    30    12    13    1
    31    13     8    1
    32     7     2    1
    33    25    20   ar
@<TRIPOS>MOLECULE
*****
 31 33 0 0 0
SMALL
GASTEIGER

@<TRIPOS>ATOM
      1 C         143.1101  140.0909  165.0374 C.3     1  UNL1        0.1143
      2 C         142.1256  139.0296  164.6445 C.3     1  UNL1        0.0690
      3 C         140.9591  138.0901  164.7242 C.3     1  UNL1        0.0485
      4 C         140.6584  137.1688  163.5793 C.3     1  UNL1        0.1436
      5 O         141.5243  137.1871  162.3546 O.3     1  UNL1       -0.3537
      6 C         142.6908  138.1267  162.2748 C.3     1  UNL1        0.1436
      7 C         142.9914  139.0480  163.4198 C.3     1  UNL1        0.0485
      8 N         140.5537  140.0803  168.7280 N.3     1  UNL1       -0.2703
      9 C         142.0252  139.8760  168.5205 C.3     1  UNL1        0.0897
     10 C         142.5491  139.5258  167.1593 C.3     1  UNL1        0.0896
     11 N         141.6016  139.3799  166.0056 N.3     1  UNL1       -0.2710
     12 C         140.1302  139.5842  166.2132 C.3     1  UNL1        0.0896
     13 C         139.6063  139.9344  167.5743 C.3     1  UNL1        0.0897
     14 C         140.0298  140.4306  170.0892 C.3     1  UNL1        0.0722
     15 C         140.3230  142.9569  169.5587 C.3     1  UNL1        0.0015
     16 C         139.9780  141.8643  170.5268 C.3     1  UNL1        0.0173
     17 N         142.9739  141.4804  164.4890 N.am    1  UNL1       -0.2425
     18 C         144.1792  142.1992  163.9594 C.2     1  UNL1        0.2304
     19 O         145.5208  141.5285  163.9782 O.2     1  UNL1       -0.2745
     20 C         141.6324  142.1511  164.4702 C.ar    1  UNL1        0.1373
     21 C         141.1399  142.8775  165.6867 C.ar    1  UNL1        0.0347
     22 C         139.7984  143.5482  165.6679 C.ar    1  UNL1        0.0044
     23 C         138.9493  143.4925  164.4327 C.ar    1  UNL1        0.0232
     24 C         139.4417  142.7660  163.2162 C.ar    1  UNL1        0.1540
     25 N         140.7833  142.0953  163.2350 N.ar    1  UNL1       -0.2263
     26 C         138.5925  142.7103  161.9810 C.3     1  UNL1        0.4349
     27 F         137.7434  142.6546  160.7456 F       1  UNL1       -0.1644
     28 F         137.5669  143.5790  162.6468 F       1  UNL1       -0.1644
     29 F         139.6182  141.8415  161.3150 F       1  UNL1       -0.1644
     30 C         144.0431  143.5886  163.4110 C.3     1  UNL1        0.0857
     31 C         143.9940  144.7619  164.3442 C.3     1  UNL1        0.0101
@<TRIPOS>BOND
     1    15    16    1
     2    16    14    1
     3    14     8    1
     4     8     9    1
     5     9    10    1
     6    10    11    1
     7    11     2    1
     8     2     1    1
     9     1    17    1
    10    17    18   am
    11    18    19    2
    12    18    30    1
    13    30    31    1
    14    17    20    1
    15    20    21   ar
    16    21    22   ar
    17    22    23   ar
    18    23    24   ar
    19    24    26    1
    20    26    27    1
    21    26    28    1
    22    26    29    1
    23    24    25   ar
    24     2     3    1
    25     3     4    1
    26     4     5    1
    27     5     6    1
    28     6     7    1
    29    11    12    1
    30    12    13    1
    31    13     8    1
    32     7     2    1
    33    25    20   ar
@<TRIPOS>MOLECULE
*****
 31 33 0 0 0
SMALL
GASTEIGER

@<TRIPOS>ATOM
      1 C         141.4245  142.1518  163.0500 C.3     1  UNL1        0.1143
      2 C         142.8420  141.9154  163.4799 C.3     1  UNL1        0.0690
      3 C         144.0211  141.6654  164.3728 C.3     1  UNL1        0.0485
      4 C         145.3944  141.5368  163.7832 C.3     1  UNL1        0.1436
      5 O         145.5886  141.6582  162.3008 O.3     1  UNL1       -0.3537
      6 C         144.4095  141.9082  161.4079 C.3     1  UNL1        0.1436
      7 C         143.0362  142.0368  161.9975 C.3     1  UNL1        0.0485
      8 N         140.7826  141.7975  167.4792 N.3     1  UNL1       -0.2703
      9 C         140.4899  142.9107  166.5174 C.3     1  UNL1        0.0897
     10 C         141.1764  142.9500  165.1843 C.3     1  UNL1        0.0896
     11 N         142.1555  141.8761  164.8130 N.3     1  UNL1       -0.2710
     12 C         142.4482  140.7629  165.7747 C.3     1  UNL1        0.0896
     13 C         141.7617  140.7236  167.1079 C.3     1  UNL1        0.0897
     14 C         140.0961  141.7581  168.8123 C.3     1  UNL1        0.0722
     15 C         140.0859  139.9863  170.7125 C.3     1  UNL1        0.0015
     16 C         139.6111  140.4520  169.3679 C.3     1  UNL1        0.0173
     17 N         140.6186  141.0266  162.4716 N.am    1  UNL1       -0.2425
     18 C         139.9977  141.1694  161.1137 C.2     1  UNL1        0.2304
     19 O         140.1826  142.4374  160.3341 O.2     1  UNL1       -0.2745
     20 C         140.4337  139.7585  163.2513 C.ar    1  UNL1        0.1373
     21 C         141.2843  138.5608  162.9478 C.ar    1  UNL1        0.0347
     22 C         141.0994  137.2927  163.7275 C.ar    1  UNL1        0.0044
     23 C         140.0640  137.2223  164.8105 C.ar    1  UNL1        0.0232
     24 C         139.2135  138.4201  165.1139 C.ar    1  UNL1        0.1540
     25 N         139.3984  139.6881  164.3343 N.ar    1  UNL1       -0.2263
     26 C         138.1781  138.3497  166.1970 C.3     1  UNL1        0.4349
     27 F         137.1427  138.2791  167.2800 F       1  UNL1       -0.1644
     28 F         138.2458  139.8393  166.3587 F       1  UNL1       -0.1644
     29 F         138.1103  136.8599  166.0352 F       1  UNL1       -0.1644
     30 C         139.1918  140.0442  160.5354 C.3     1  UNL1        0.0857
     31 C         137.7131  139.9788  160.7778 C.3     1  UNL1        0.0101
@<TRIPOS>BOND
     1    15    16    1
     2    16    14    1
     3    14     8    1
     4     8     9    1
     5     9    10    1
     6    10    11    1
     7    11     2    1
     8     2     1    1
     9     1    17    1
    10    17    18   am
    11    18    19    2
    12    18    30    1
    13    30    31    1
    14    17    20    1
    15    20    21   ar
    16    21    22   ar
    17    22    23   ar
    18    23    24   ar
    19    24    26    1
    20    26    27    1
    21    26    28    1
    22    26    29    1
    23    24    25   ar
    24     2     3    1
    25     3     4    1
    26     4     5    1
    27     5     6    1
    28     6     7    1
    29    11    12    1
    30    12    13    1
    31    13     8    1
    32     7     2    1
    33    25    20   ar
@<TRIPOS>MOLECULE
*****
 31 33 0 0 0
SMALL
GASTEIGER

@<TRIPOS>ATOM
      1 C         141.1013  143.4759  164.5324 C.3     1  UNL1        0.1143
      2 C         139.7340  143.0050  164.1342 C.3     1  UNL1        0.0690
      3 C         138.4083  142.3066  164.2028 C.3     1  UNL1        0.0485
      4 C         137.4376  142.4265  163.0654 C.3     1  UNL1        0.1436
      5 O         137.7928  143.2447  161.8595 O.3     1  UNL1       -0.3537
      6 C         139.1185  143.9430  161.7908 C.3     1  UNL1        0.1436
      7 C         140.0892  143.8231  162.9282 C.3     1  UNL1        0.0485
      8 N         140.0931  141.0411  168.1671 N.3     1  UNL1       -0.2703
      9 C         139.6558  140.2380  166.9780 C.3     1  UNL1        0.0897
     10 C         139.5362  140.8926  165.6337 C.3     1  UNL1        0.0896
     11 N         139.8537  142.3503  165.4785 N.3     1  UNL1       -0.2710
     12 C         140.2910  143.1534  166.6675 C.3     1  UNL1        0.0896
     13 C         140.4107  142.4988  168.0118 C.3     1  UNL1        0.0897
     14 C         140.2128  140.3865  169.5113 C.3     1  UNL1        0.0722
     15 C         142.7035  139.7633  169.1140 C.3     1  UNL1        0.0015
     16 C         141.4036  139.5300  169.8251 C.3     1  UNL1        0.0173
     17 N         142.3159  142.9043  163.8629 N.am    1  UNL1       -0.2425
     18 C         143.3789  143.8187  163.3301 C.2     1  UNL1        0.2304
     19 O         143.2273  145.3048  163.4668 O.2     1  UNL1       -0.2745
     20 C         142.4675  141.4183  163.7263 C.ar    1  UNL1        0.1373
     21 C         141.9955  140.7275  162.4813 C.ar    1  UNL1        0.0347
     22 C         142.1471  139.2415  162.3446 C.ar    1  UNL1        0.0044
     23 C         142.7707  138.4462  163.4530 C.ar    1  UNL1        0.0232
     24 C         143.2427  139.1369  164.6981 C.ar    1  UNL1        0.1540
     25 N         143.0911  140.6229  164.8347 N.ar    1  UNL1       -0.2263
     26 C         143.8663  138.3415  165.8064 C.3     1  UNL1        0.4349
     27 F         144.4901  137.5461  166.9147 F       1  UNL1       -0.1644
     28 F         142.5023  137.9610  166.3009 F       1  UNL1       -0.1644
     29 F         145.2305  138.7220  165.3119 F       1  UNL1       -0.1644
     30 C         144.5934  143.2473  162.6607 C.3     1  UNL1        0.0857
     31 C         144.5751  142.9652  161.1876 C.3     1  UNL1        0.0101
@<TRIPOS>BOND
     1    15    16    1
     2    16    14    1
     3    14     8    1
     4     8     9    1
     5     9    10    1
     6    10    11    1
     7    11     2    1
     8     2     1    1
     9     1    17    1
    10    17    18   am
    11    18    19    2
    12    18    30    1
    13    30    31    1
    14    17    20    1
    15    20    21   ar
    16    21    22   ar
    17    22    23   ar
    18    23    24   ar
    19    24    26    1
    20    26    27    1
    21    26    28    1
    22    26    29    1
    23    24    25   ar
    24     2     3    1
    25     3     4    1
    26     4     5    1
    27     5     6    1
    28     6     7    1
    29    11    12    1
    30    12    13    1
    31    13     8    1
    32     7     2    1
    33    25    20   ar
@<TRIPOS>MOLECULE
*****
 31 33 0 0 0
SMALL
GASTEIGER

@<TRIPOS>ATOM
      1 C         142.5637  143.1014  165.0956 C.3     1  UNL1        0.1143
      2 C         143.5988  142.1083  164.6571 C.3     1  UNL1        0.0690
      3 C         144.4849  140.8980  164.6681 C.3     1  UNL1        0.0485
      4 C         145.4407  140.6580  163.5372 C.3     1  UNL1        0.1436
      5 O         145.5104  141.6281  162.3954 O.3     1  UNL1       -0.3537
      6 C         144.6243  142.8384  162.3844 C.3     1  UNL1        0.1436
      7 C         143.6685  143.0784  163.5153 C.3     1  UNL1        0.0485
      8 N         142.3113  140.2324  168.5396 N.3     1  UNL1       -0.2703
      9 C         142.4018  139.3974  167.2968 C.3     1  UNL1        0.0897
     10 C         142.8310  140.0227  166.0027 C.3     1  UNL1        0.0896
     11 N         143.1696  141.4830  165.9513 N.3     1  UNL1       -0.2710
     12 C         143.0791  142.3181  167.1940 C.3     1  UNL1        0.0896
     13 C         142.6500  141.6928  168.4881 C.3     1  UNL1        0.0897
     14 C         141.8821  139.6071  169.8337 C.3     1  UNL1        0.0722
     15 C         139.4055  140.3466  169.5698 C.3     1  UNL1        0.0015
     16 C         140.5659  139.9821  170.4477 C.3     1  UNL1        0.0173
     17 N         141.1916  143.0713  164.4902 N.am    1  UNL1       -0.2425
     18 C         140.6471  144.2896  163.8053 C.2     1  UNL1        0.2304
     19 O         141.4747  145.5381  163.7258 O.2     1  UNL1       -0.2745
     20 C         140.3640  141.8227  164.5697 C.ar    1  UNL1        0.1373
     21 C         139.5320  141.5507  165.7878 C.ar    1  UNL1        0.0347
     22 C         138.7045  140.3022  165.8673 C.ar    1  UNL1        0.0044
     23 C         138.7089  139.3257  164.7287 C.ar    1  UNL1        0.0232
     24 C         139.5408  139.5978  163.5106 C.ar    1  UNL1        0.1540
     25 N         140.3684  140.8463  163.4311 N.ar    1  UNL1       -0.2263
     26 C         139.5452  138.6212  162.3720 C.3     1  UNL1        0.4349
     27 F         139.5496  137.6447  161.2334 F       1  UNL1       -0.1644
     28 F         138.4510  137.8403  163.0375 F       1  UNL1       -0.1644
     29 F         140.6394  139.4022  161.7064 F       1  UNL1       -0.1644
     30 C         139.2750  144.2596  163.1999 C.3     1  UNL1        0.0857
     31 C         139.0951  143.8437  161.7700 C.3     1  UNL1        0.0101
@<TRIPOS>BOND
     1    15    16    1
     2    16    14    1
     3    14     8    1
     4     8     9    1
     5     9    10    1
     6    10    11    1
     7    11     2    1
     8     2     1    1
     9     1    17    1
    10    17    18   am
    11    18    19    2
    12    18    30    1
    13    30    31    1
    14    17    20    1
    15    20    21   ar
    16    21    22   ar
    17    22    23   ar
    18    23    24   ar
    19    24    26    1
    20    26    27    1
    21    26    28    1
    22    26    29    1
    23    24    25   ar
    24     2     3    1
    25     3     4    1
    26     4     5    1
    27     5     6    1
    28     6     7    1
    29    11    12    1
    30    12    13    1
    31    13     8    1
    32     7     2    1
    33    25    20   ar
@<TRIPOS>MOLECULE
*****
 31 33 0 0 0
SMALL
GASTEIGER

@<TRIPOS>ATOM
      1 C         138.7737  140.4340  164.3823 C.3     1  UNL1        0.1143
      2 C         139.0433  140.5413  165.8540 C.3     1  UNL1        0.0690
      3 C         139.5796  141.0621  167.1544 C.3     1  UNL1        0.0485
      4 C         139.2541  140.3553  168.4368 C.3     1  UNL1        0.1436
      5 O         138.3924  139.1277  168.4188 O.3     1  UNL1       -0.3537
      6 C         137.8560  138.6069  167.1184 C.3     1  UNL1        0.1436
      7 C         138.1815  139.3137  165.8360 C.3     1  UNL1        0.0485
      8 N         141.3478  144.1122  164.3749 N.3     1  UNL1       -0.2703
      9 C         141.9659  143.1835  165.3775 C.3     1  UNL1        0.0897
     10 C         141.1977  141.9932  165.8706 C.3     1  UNL1        0.0896
     11 N         139.8114  141.7316  165.3610 N.3     1  UNL1       -0.2710
     12 C         139.1933  142.6604  164.3584 C.3     1  UNL1        0.0896
     13 C         139.9615  143.8507  163.8653 C.3     1  UNL1        0.0897
     14 C         142.1159  145.3026  163.8819 C.3     1  UNL1        0.0722
     15 C         144.1950  144.3786  162.6275 C.3     1  UNL1        0.0015
     16 C         143.6049  145.2198  163.7202 C.3     1  UNL1        0.0173
     17 N         139.6328  139.5525  163.5249 N.am    1  UNL1       -0.2425
     18 C         139.0520  138.8923  162.3097 C.2     1  UNL1        0.2304
     19 O         137.6122  139.1135  161.9519 O.2     1  UNL1       -0.2745
     20 C         141.0726  139.3313  163.8828 C.ar    1  UNL1        0.1373
     21 C         141.4419  138.2885  164.8958 C.ar    1  UNL1        0.0347
     22 C         142.8817  138.0673  165.2536 C.ar    1  UNL1        0.0044
     23 C         143.9521  138.8888  164.5985 C.ar    1  UNL1        0.0232
     24 C         143.5827  139.9317  163.5855 C.ar    1  UNL1        0.1540
     25 N         142.1429  140.1529  163.2276 N.ar    1  UNL1       -0.2263
     26 C         144.6532  140.7532  162.9304 C.3     1  UNL1        0.4349
     27 F         145.7238  141.5747  162.2754 F       1  UNL1       -0.1644
     28 F         143.6947  141.1339  161.8413 F       1  UNL1       -0.1644
     29 F         145.6119  140.3725  164.0195 F       1  UNL1       -0.1644
     30 C         139.9109  138.0108  161.4523 C.3     1  UNL1        0.0857
     31 C         140.6301  138.5867  160.2686 C.3     1  UNL1        0.0101
@<TRIPOS>BOND
     1    15    16    1
     2    16    14    1
     3    14     8    1
     4     8     9    1
     5     9    10    1
     6    10    11    1
     7    11     2    1
     8     2     1    1
     9     1    17    1
    10    17    18   am
    11    18    19    2
    12    18    30    1
    13    30    31    1
    14    17    20    1
    15    20    21   ar
    16    21    22   ar
    17    22    23   ar
    18    23    24   ar
    19    24    26    1
    20    26    27    1
    21    26    28    1
    22    26    29    1
    23    24    25   ar
    24     2     3    1
    25     3     4    1
    26     4     5    1
    27     5     6    1
    28     6     7    1
    29    11    12    1
    30    12    13    1
    31    13     8    1
    32     7     2    1
    33    25    20   ar
@<TRIPOS>MOLECULE
*****
 31 33 0 0 0
SMALL
GASTEIGER

@<TRIPOS>ATOM
      1 C         141.3876  143.1934  164.6830 C.3     1  UNL1        0.1143
      2 C         139.9578  143.0004  164.2724 C.3     1  UNL1        0.0690
      3 C         138.5268  142.5530  164.3165 C.3     1  UNL1        0.0485
      4 C         137.5959  142.9054  163.1942 C.3     1  UNL1        0.1436
      5 O         138.0961  143.7053  162.0281 O.3     1  UNL1       -0.3537
      6 C         139.5271  144.1527  161.9841 C.3     1  UNL1        0.1436
      7 C         140.4580  143.8003  163.1063 C.3     1  UNL1        0.0485
      8 N         139.9469  140.8018  168.1987 N.3     1  UNL1       -0.2703
      9 C         139.3872  140.1469  166.9708 C.3     1  UNL1        0.0897
     10 C         139.3908  140.8798  165.6621 C.3     1  UNL1        0.0896
     11 N         139.9542  142.2675  165.5812 N.3     1  UNL1       -0.2710
     12 C         140.5139  142.9224  166.8091 C.3     1  UNL1        0.0896
     13 C         140.5103  142.1895  168.1178 C.3     1  UNL1        0.0897
     14 C         139.9433  140.0689  169.5075 C.3     1  UNL1        0.0722
     15 C         142.3361  139.1140  169.8434 C.3     1  UNL1        0.0015
     16 C         141.2022  139.9740  170.3175 C.3     1  UNL1        0.0173
     17 N         142.4752  142.4191  163.9992 N.am    1  UNL1       -0.2425
     18 C         143.7343  143.1129  163.5710 C.2     1  UNL1        0.2304
     19 O         143.9057  144.5810  163.8266 O.2     1  UNL1       -0.2745
     20 C         142.3038  140.9510  163.7436 C.ar    1  UNL1        0.1373
     21 C         142.7550  139.9535  164.7690 C.ar    1  UNL1        0.0347
     22 C         142.5836  138.4854  164.5134 C.ar    1  UNL1        0.0044
     23 C         141.9610  138.0149  163.2325 C.ar    1  UNL1        0.0232
     24 C         141.5098  139.0124  162.2071 C.ar    1  UNL1        0.1540
     25 N         141.6812  140.4805  162.4627 N.ar    1  UNL1       -0.2263
     26 C         140.8871  138.5417  160.9261 C.3     1  UNL1        0.4349
     27 F         140.2646  138.0709  159.6451 F       1  UNL1       -0.1644
     28 F         139.7283  139.4675  161.1491 F       1  UNL1       -0.1644
     29 F         142.0461  137.6158  160.7031 F       1  UNL1       -0.1644
     30 C         144.8219  142.3388  162.8872 C.3     1  UNL1        0.0857
     31 C         145.8801  141.6541  163.7003 C.3     1  UNL1        0.0101
@<TRIPOS>BOND
     1    15    16    1
     2    16    14    1
     3    14     8    1
     4     8     9    1
     5     9    10    1
     6    10    11    1
     7    11     2    1
     8     2     1    1
     9     1    17    1
    10    17    18   am
    11    18    19    2
    12    18    30    1
    13    30    31    1
    14    17    20    1
    15    20    21   ar
    16    21    22   ar
    17    22    23   ar
    18    23    24   ar
    19    24    26    1
    20    26    27    1
    21    26    28    1
    22    26    29    1
    23    24    25   ar
    24     2     3    1
    25     3     4    1
    26     4     5    1
    27     5     6    1
    28     6     7    1
    29    11    12    1
    30    12    13    1
    31    13     8    1
    32     7     2    1
    33    25    20   ar
@<TRIPOS>MOLECULE
*****
 31 33 0 0 0
SMALL
GASTEIGER

@<TRIPOS>ATOM
      1 C         139.8247  140.1402  163.2059 C.3     1  UNL1        0.1143
      2 C         139.1014  141.4539  163.2369 C.3     1  UNL1        0.0690
      3 C         138.4976  142.7183  163.7724 C.3     1  UNL1        0.0485
      4 C         137.8008  143.6685  162.8442 C.3     1  UNL1        0.1436
      5 O         137.7078  143.3544  161.3805 O.3     1  UNL1       -0.3537
      6 C         138.3116  142.0900  160.8449 C.3     1  UNL1        0.1436
      7 C         139.0084  141.1398  161.7731 C.3     1  UNL1        0.0485
      8 N         140.1341  141.0276  167.5960 N.3     1  UNL1       -0.2703
      9 C         139.4689  139.8969  166.8687 C.3     1  UNL1        0.0897
     10 C         139.1246  140.0390  165.4157 C.3     1  UNL1        0.0896
     11 N         139.4456  141.3118  164.6899 N.3     1  UNL1       -0.2710
     12 C         140.1108  142.4426  165.4171 C.3     1  UNL1        0.0896
     13 C         140.4550  142.3005  166.8702 C.3     1  UNL1        0.0897
     14 C         140.4783  140.8856  169.0490 C.3     1  UNL1        0.0722
     15 C         139.8675  142.9432  170.5128 C.3     1  UNL1        0.0015
     16 C         139.6110  141.5267  170.0914 C.3     1  UNL1        0.0173
     17 N         141.1001  140.0044  162.4281 N.am    1  UNL1       -0.2425
     18 C         141.4355  138.7047  161.7586 C.2     1  UNL1        0.2304
     19 O         140.4955  137.5408  161.8668 O.2     1  UNL1       -0.2745
     20 C         142.0401  141.1683  162.3199 C.ar    1  UNL1        0.1373
     21 C         142.2580  141.8356  160.9943 C.ar    1  UNL1        0.0347
     22 C         143.1979  142.9996  160.8860 C.ar    1  UNL1        0.0044
     23 C         143.9200  143.4961  162.1033 C.ar    1  UNL1        0.0232
     24 C         143.7022  142.8288  163.4290 C.ar    1  UNL1        0.1540
     25 N         142.7622  141.6649  163.5372 N.ar    1  UNL1       -0.2263
     26 C         144.4243  143.3255  164.6463 C.3     1  UNL1        0.4349
     27 F         145.1464  143.8223  165.8636 F       1  UNL1       -0.1644
     28 F         145.5364  142.3540  164.3830 F       1  UNL1       -0.1644
     29 F         143.3121  144.2970  164.9096 F       1  UNL1       -0.1644
     30 C         142.7108  138.5689  160.9808 C.3     1  UNL1        0.0857
     31 C         143.9286  137.9847  161.6332 C.3     1  UNL1        0.0101
@<TRIPOS>BOND
     1    15    16    1
     2    16    14    1
     3    14     8    1
     4     8     9    1
     5     9    10    1
     6    10    11    1
     7    11     2    1
     8     2     1    1
     9     1    17    1
    10    17    18   am
    11    18    19    2
    12    18    30    1
    13    30    31    1
    14    17    20    1
    15    20    21   ar
    16    21    22   ar
    17    22    23   ar
    18    23    24   ar
    19    24    26    1
    20    26    27    1
    21    26    28    1
    22    26    29    1
    23    24    25   ar
    24     2     3    1
    25     3     4    1
    26     4     5    1
    27     5     6    1
    28     6     7    1
    29    11    12    1
    30    12    13    1
    31    13     8    1
    32     7     2    1
    33    25    20   ar
