@<TRIPOS>MOLECULE
*****
 33 37 0 0 0
SMALL
GASTEIGER

@<TRIPOS>ATOM
      1 C         142.2437  141.5497  161.9088 C.ar    1  UNL1        0.1829
      2 N         141.4732  140.9089  163.0249 N.ar    1  UNL1       -0.2103
      3 C         142.4514  140.2105  163.9224 C.ar    1  UNL1        0.1414
      4 N         143.8265  140.4197  163.3609 N.ar    1  UNL1       -0.2361
      5 N         143.6982  141.2473  162.1164 N.ar    1  UNL1       -0.1488
      6 C         145.0179  139.8294  164.0552 C.3     1  UNL1        0.1289
      7 C         144.8342  139.0301  165.3111 C.3     1  UNL1        0.0272
      8 C         143.4590  138.8210  165.8726 C.3     1  UNL1        0.0140
      9 C         142.2676  139.4112  165.1782 C.3     1  UNL1        0.0806
     10 C         140.3541  144.4347  159.9452 C.ar    1  UNL1        0.1548
     11 C         140.9358  143.6324  161.0712 C.ar    1  UNL1        0.0415
     12 C         141.6619  142.3520  160.7828 C.ar    1  UNL1        0.0406
     13 C         141.8063  141.8738  159.3685 C.ar    1  UNL1        0.0048
     14 C         141.2245  142.6761  158.2424 C.ar    1  UNL1        0.0207
     15 C         140.4984  143.9565  158.5308 C.ar    1  UNL1        0.0994
     16 N         139.9166  144.7588  157.4048 N.ar    1  UNL1       -0.2839
     17 C         138.8740  144.2889  156.4342 C.ar    1  UNL1        0.1826
     18 N         138.5883  145.4115  155.4812 N.ar    1  UNL1       -0.2280
     19 C         139.4544  146.5752  155.8628 C.ar    1  UNL1        0.0786
     20 C         139.4928  147.9083  155.1762 C.3     1  UNL1        0.0538
     21 C         140.2753  146.1718  157.0517 C.ar    1  UNL1        0.0963
     22 C         139.6786  146.3128  161.6084 C.3     1  UNL1        0.2525
     23 O         139.6279  145.7152  160.2336 O.3     1  UNL1       -0.4700
     24 C         140.8925  139.2021  165.7397 C.ar    1  UNL1       -0.0114
     25 C         140.4599  139.9535  166.9637 C.ar    1  UNL1       -0.0039
     26 C         139.0848  139.7443  167.5252 C.ar    1  UNL1       -0.0003
     27 C         138.1422  138.7839  166.8627 C.ar    1  UNL1       -0.0001
     28 C         138.5748  138.0325  165.6387 C.ar    1  UNL1        0.0035
     29 C         139.9500  138.2416  165.0772 C.ar    1  UNL1        0.0679
     30 C         140.3825  137.4902  163.8531 C.3     1  UNL1        0.4183
     31 F         140.8151  136.7388  162.6291 F       1  UNL1       -0.1659
     32 F         139.5833  138.4263  162.9959 F       1  UNL1       -0.1659
     33 F         141.1817  136.5540  164.7103 F       1  UNL1       -0.1659
@<TRIPOS>BOND
     1    22    23    1
     2    23    10    1
     3    10    11   ar
     4    11    12   ar
     5    12     1    1
     6     1     2   ar
     7     2     3   ar
     8     3     4   ar
     9     4     5   ar
    10     4     6    1
    11     6     7    1
    12     7     8    1
    13     8     9    1
    14     9    24    1
    15    24    25   ar
    16    25    26   ar
    17    26    27   ar
    18    27    28   ar
    19    28    29   ar
    20    29    30    1
    21    30    31    1
    22    30    32    1
    23    30    33    1
    24    12    13   ar
    25    13    14   ar
    26    14    15   ar
    27    15    16    1
    28    16    17   ar
    29    17    18   ar
    30    18    19   ar
    31    19    20    1
    32    19    21   ar
    33    15    10   ar
    34    21    16   ar
    35     5     1   ar
    36    29    24   ar
    37     9     3    1
@<TRIPOS>MOLECULE
*****
 33 37 0 0 0
SMALL
GASTEIGER

@<TRIPOS>ATOM
      1 C         142.1184  141.4467  161.8398 C.ar    1  UNL1        0.1829
      2 N         141.3356  140.7323  162.9013 N.ar    1  UNL1       -0.2103
      3 C         142.3089  140.0357  163.8054 C.ar    1  UNL1        0.1414
      4 N         143.6934  140.3196  163.3026 N.ar    1  UNL1       -0.2361
      5 N         143.5756  141.1916  162.0878 N.ar    1  UNL1       -0.1488
      6 C         144.8823  139.7473  164.0158 C.3     1  UNL1        0.1289
      7 C         144.6869  138.8912  165.2319 C.3     1  UNL1        0.0272
      8 C         143.3025  138.6073  165.7347 C.3     1  UNL1        0.0140
      9 C         142.1135  139.1795  165.0214 C.3     1  UNL1        0.0806
     10 C         140.3277  144.4175  159.9117 C.ar    1  UNL1        0.1548
     11 C         140.9014  143.5928  161.0256 C.ar    1  UNL1        0.0415
     12 C         141.5447  142.2714  160.7259 C.ar    1  UNL1        0.0406
     13 C         141.6145  141.7747  159.3123 C.ar    1  UNL1        0.0048
     14 C         141.0408  142.5994  158.1984 C.ar    1  UNL1        0.0207
     15 C         140.3974  143.9208  158.4981 C.ar    1  UNL1        0.0994
     16 N         139.8238  144.7455  157.3842 N.ar    1  UNL1       -0.2839
     17 C         138.8675  144.2647  156.3333 C.ar    1  UNL1        0.1826
     18 N         138.5584  145.4178  155.4252 N.ar    1  UNL1       -0.2280
     19 C         139.3236  146.6114  155.9148 C.ar    1  UNL1        0.0786
     20 C         139.3094  147.9802  155.3015 C.3     1  UNL1        0.0538
     21 C         140.1057  146.1959  157.1255 C.ar    1  UNL1        0.0963
     22 C         139.7149  146.2888  161.6067 C.3     1  UNL1        0.2525
     23 O         139.6843  145.7390  160.2115 O.3     1  UNL1       -0.4700
     24 C         140.7291  138.8957  165.5242 C.ar    1  UNL1       -0.0114
     25 C         139.9297  137.7752  164.9280 C.ar    1  UNL1       -0.0039
     26 C         138.5453  137.4914  165.4307 C.ar    1  UNL1       -0.0003
     27 C         137.9602  138.3279  166.5298 C.ar    1  UNL1       -0.0001
     28 C         138.7596  139.4483  167.1260 C.ar    1  UNL1        0.0035
     29 C         140.1441  139.7322  166.6232 C.ar    1  UNL1        0.0679
     30 C         140.9435  140.8527  167.2195 C.3     1  UNL1        0.4183
     31 F         141.7429  141.9731  167.8158 F       1  UNL1       -0.1659
     32 F         140.3956  141.7930  166.1873 F       1  UNL1       -0.1659
     33 F         141.4914  139.9124  168.2518 F       1  UNL1       -0.1659
@<TRIPOS>BOND
     1    22    23    1
     2    23    10    1
     3    10    11   ar
     4    11    12   ar
     5    12     1    1
     6     1     2   ar
     7     2     3   ar
     8     3     4   ar
     9     4     5   ar
    10     4     6    1
    11     6     7    1
    12     7     8    1
    13     8     9    1
    14     9    24    1
    15    24    25   ar
    16    25    26   ar
    17    26    27   ar
    18    27    28   ar
    19    28    29   ar
    20    29    30    1
    21    30    31    1
    22    30    32    1
    23    30    33    1
    24    12    13   ar
    25    13    14   ar
    26    14    15   ar
    27    15    16    1
    28    16    17   ar
    29    17    18   ar
    30    18    19   ar
    31    19    20    1
    32    19    21   ar
    33    15    10   ar
    34    21    16   ar
    35     5     1   ar
    36    29    24   ar
    37     9     3    1
@<TRIPOS>MOLECULE
*****
 33 37 0 0 0
SMALL
GASTEIGER

@<TRIPOS>ATOM
      1 C         143.3135  140.7858  162.0427 C.ar    1  UNL1        0.1829
      2 N         142.1443  141.4275  162.7291 N.ar    1  UNL1       -0.2103
      3 C         142.0258  140.8294  164.0996 C.ar    1  UNL1        0.1414
      4 N         143.1219  139.8180  164.2603 N.ar    1  UNL1       -0.2361
      5 N         143.9177  139.7911  162.9891 N.ar    1  UNL1       -0.1488
      6 C         143.2537  139.0523  165.5433 C.3     1  UNL1        0.1289
      7 C         142.2894  139.2980  166.6657 C.3     1  UNL1        0.0272
      8 C         141.1934  140.3093  166.5051 C.3     1  UNL1        0.0140
      9 C         141.0616  141.0751  165.2220 C.3     1  UNL1        0.0806
     10 C         144.1478  140.3510  158.1872 C.ar    1  UNL1        0.1548
     11 C         143.6671  140.0507  159.5761 C.ar    1  UNL1        0.0415
     12 C         143.7941  141.0861  160.6539 C.ar    1  UNL1        0.0406
     13 C         144.4018  142.4218  160.3430 C.ar    1  UNL1        0.0048
     14 C         144.8824  142.7220  158.9541 C.ar    1  UNL1        0.0207
     15 C         144.7554  141.6867  157.8763 C.ar    1  UNL1        0.0994
     16 N         145.2360  141.9869  156.4875 N.ar    1  UNL1       -0.2839
     17 C         144.3725  142.3377  155.3122 C.ar    1  UNL1        0.1826
     18 N         145.2674  142.5567  154.1284 N.ar    1  UNL1       -0.2280
     19 C         146.6840  142.3413  154.5721 C.ar    1  UNL1        0.0786
     20 C         147.9055  142.4577  153.7093 C.3     1  UNL1        0.0538
     21 C         146.6646  141.9892  156.0301 C.ar    1  UNL1        0.0963
     22 C         142.6861  139.0492  156.4788 C.3     1  UNL1        0.2525
     23 O         144.0207  139.3155  157.1094 O.3     1  UNL1       -0.4700
     24 C         139.9655  142.0864  165.0614 C.ar    1  UNL1       -0.0114
     25 C         140.1970  143.5133  165.4618 C.ar    1  UNL1       -0.0039
     26 C         139.1010  144.5247  165.3012 C.ar    1  UNL1       -0.0003
     27 C         137.7734  144.1092  164.7401 C.ar    1  UNL1       -0.0001
     28 C         137.5419  142.6823  164.3396 C.ar    1  UNL1        0.0035
     29 C         138.6380  141.6709  164.5003 C.ar    1  UNL1        0.0679
     30 C         138.4064  140.2440  164.0998 C.3     1  UNL1        0.4183
     31 F         138.1748  138.8172  163.6993 F       1  UNL1       -0.1659
     32 F         137.8749  139.9455  165.4703 F       1  UNL1       -0.1659
     33 F         138.9378  140.5425  162.7292 F       1  UNL1       -0.1659
@<TRIPOS>BOND
     1    22    23    1
     2    23    10    1
     3    10    11   ar
     4    11    12   ar
     5    12     1    1
     6     1     2   ar
     7     2     3   ar
     8     3     4   ar
     9     4     5   ar
    10     4     6    1
    11     6     7    1
    12     7     8    1
    13     8     9    1
    14     9    24    1
    15    24    25   ar
    16    25    26   ar
    17    26    27   ar
    18    27    28   ar
    19    28    29   ar
    20    29    30    1
    21    30    31    1
    22    30    32    1
    23    30    33    1
    24    12    13   ar
    25    13    14   ar
    26    14    15   ar
    27    15    16    1
    28    16    17   ar
    29    17    18   ar
    30    18    19   ar
    31    19    20    1
    32    19    21   ar
    33    15    10   ar
    34    21    16   ar
    35     5     1   ar
    36    29    24   ar
    37     9     3    1
@<TRIPOS>MOLECULE
*****
 33 37 0 0 0
SMALL
GASTEIGER

@<TRIPOS>ATOM
      1 C         140.0274  141.0670  160.8749 C.ar    1  UNL1        0.1829
      2 N         140.8961  141.6759  161.9353 N.ar    1  UNL1       -0.2103
      3 C         140.0401  142.5774  162.7747 C.ar    1  UNL1        0.1414
      4 N         138.6422  142.5255  162.2331 N.ar    1  UNL1       -0.2361
      5 N         138.6344  141.5921  161.0590 N.ar    1  UNL1       -0.1488
      6 C         137.5571  143.3350  162.8790 C.3     1  UNL1        0.1289
      7 C         137.8699  144.1963  164.0666 C.3     1  UNL1        0.0272
      8 C         139.2677  144.2482  164.6082 C.3     1  UNL1        0.0140
      9 C         140.3528  143.4387  163.9623 C.3     1  UNL1        0.0806
     10 C         142.3372  139.1631  158.2691 C.ar    1  UNL1        0.1548
     11 C         141.8912  140.1278  159.3277 C.ar    1  UNL1        0.0415
     12 C         140.4733  140.1023  159.8164 C.ar    1  UNL1        0.0406
     13 C         139.5013  139.1122  159.2464 C.ar    1  UNL1        0.0048
     14 C         139.9473  138.1475  158.1879 C.ar    1  UNL1        0.0207
     15 C         141.3652  138.1730  157.6992 C.ar    1  UNL1        0.0994
     16 N         141.8111  137.2083  156.6407 N.ar    1  UNL1       -0.2839
     17 C         142.7807  136.0794  156.8285 C.ar    1  UNL1        0.1826
     18 N         142.9346  135.3765  155.5123 N.ar    1  UNL1       -0.2280
     19 C         142.0601  136.0711  154.5110 C.ar    1  UNL1        0.0786
     20 C         141.9068  135.6990  153.0660 C.3     1  UNL1        0.0538
     21 C         141.3657  137.2032  155.2083 C.ar    1  UNL1        0.0963
     22 C         144.1884  140.2281  156.7897 C.3     1  UNL1        0.2525
     23 O         143.7552  139.1886  157.7805 O.3     1  UNL1       -0.4700
     24 C         141.7507  143.4905  164.5039 C.ar    1  UNL1       -0.0114
     25 C         142.7398  144.4640  163.9348 C.ar    1  UNL1       -0.0039
     26 C         144.1377  144.5159  164.4765 C.ar    1  UNL1       -0.0003
     27 C         144.5464  143.5942  165.5871 C.ar    1  UNL1       -0.0001
     28 C         143.5572  142.6208  166.1561 C.ar    1  UNL1        0.0035
     29 C         142.1593  142.5689  165.6145 C.ar    1  UNL1        0.0679
     30 C         141.1701  141.5954  166.1836 C.3     1  UNL1        0.4183
     31 F         140.1810  140.6219  166.7526 F       1  UNL1       -0.1659
     32 F         140.7409  142.6204  167.1911 F       1  UNL1       -0.1659
     33 F         141.5993  140.5704  165.1761 F       1  UNL1       -0.1659
@<TRIPOS>BOND
     1    22    23    1
     2    23    10    1
     3    10    11   ar
     4    11    12   ar
     5    12     1    1
     6     1     2   ar
     7     2     3   ar
     8     3     4   ar
     9     4     5   ar
    10     4     6    1
    11     6     7    1
    12     7     8    1
    13     8     9    1
    14     9    24    1
    15    24    25   ar
    16    25    26   ar
    17    26    27   ar
    18    27    28   ar
    19    28    29   ar
    20    29    30    1
    21    30    31    1
    22    30    32    1
    23    30    33    1
    24    12    13   ar
    25    13    14   ar
    26    14    15   ar
    27    15    16    1
    28    16    17   ar
    29    17    18   ar
    30    18    19   ar
    31    19    20    1
    32    19    21   ar
    33    15    10   ar
    34    21    16   ar
    35     5     1   ar
    36    29    24   ar
    37     9     3    1
@<TRIPOS>MOLECULE
*****
 33 37 0 0 0
SMALL
GASTEIGER

@<TRIPOS>ATOM
      1 C         140.0306  140.2252  160.8842 C.ar    1  UNL1        0.1829
      2 N         140.8796  140.9918  161.8545 N.ar    1  UNL1       -0.2103
      3 C         139.9660  141.7173  162.7974 C.ar    1  UNL1        0.1414
      4 N         138.5523  141.3990  162.4099 N.ar    1  UNL1       -0.2361
      5 N         138.5922  140.4769  161.2274 N.ar    1  UNL1       -0.1488
      6 C         137.4113  141.9900  163.1837 C.3     1  UNL1        0.1289
      7 C         137.6840  142.8992  164.3451 C.3     1  UNL1        0.0272
      8 C         139.0977  143.2175  164.7326 C.3     1  UNL1        0.0140
      9 C         140.2386  142.6265  163.9588 C.3     1  UNL1        0.0806
     10 C         140.0903  138.0289  157.5793 C.ar    1  UNL1        0.1548
     11 C         139.5890  138.8951  158.6966 C.ar    1  UNL1        0.0415
     12 C         140.5319  139.3590  159.7669 C.ar    1  UNL1        0.0406
     13 C         141.9762  138.9569  159.7198 C.ar    1  UNL1        0.0048
     14 C         142.4775  138.0907  158.6025 C.ar    1  UNL1        0.0207
     15 C         141.5346  137.6267  157.5322 C.ar    1  UNL1        0.0994
     16 N         142.0359  136.7605  156.4149 N.ar    1  UNL1       -0.2839
     17 C         142.4363  137.2294  155.0475 C.ar    1  UNL1        0.1826
     18 N         142.8727  136.0320  154.2562 N.ar    1  UNL1       -0.2280
     19 C         142.7420  134.8232  155.1347 C.ar    1  UNL1        0.0786
     20 C         143.0708  133.4120  154.7471 C.3     1  UNL1        0.0538
     21 C         142.2249  135.2735  156.4688 C.ar    1  UNL1        0.0963
     22 C         138.8548  138.4483  155.3326 C.3     1  UNL1        0.2525
     23 O         139.1472  137.5649  156.5090 O.3     1  UNL1       -0.4700
     24 C         141.6523  142.9448  164.3464 C.ar    1  UNL1       -0.0114
     25 C         142.3110  142.1925  165.4645 C.ar    1  UNL1       -0.0039
     26 C         143.7246  142.5107  165.8521 C.ar    1  UNL1       -0.0003
     27 C         144.4797  143.5813  165.1215 C.ar    1  UNL1       -0.0001
     28 C         143.8211  144.3336  164.0034 C.ar    1  UNL1        0.0035
     29 C         142.4074  144.0153  163.6159 C.ar    1  UNL1        0.0679
     30 C         141.7488  144.7677  162.4977 C.3     1  UNL1        0.4183
     31 F         141.0901  145.5201  161.3796 F       1  UNL1       -0.1659
     32 F         142.3275  143.8018  161.5068 F       1  UNL1       -0.1659
     33 F         141.1700  145.7337  163.4886 F       1  UNL1       -0.1659
@<TRIPOS>BOND
     1    22    23    1
     2    23    10    1
     3    10    11   ar
     4    11    12   ar
     5    12     1    1
     6     1     2   ar
     7     2     3   ar
     8     3     4   ar
     9     4     5   ar
    10     4     6    1
    11     6     7    1
    12     7     8    1
    13     8     9    1
    14     9    24    1
    15    24    25   ar
    16    25    26   ar
    17    26    27   ar
    18    27    28   ar
    19    28    29   ar
    20    29    30    1
    21    30    31    1
    22    30    32    1
    23    30    33    1
    24    12    13   ar
    25    13    14   ar
    26    14    15   ar
    27    15    16    1
    28    16    17   ar
    29    17    18   ar
    30    18    19   ar
    31    19    20    1
    32    19    21   ar
    33    15    10   ar
    34    21    16   ar
    35     5     1   ar
    36    29    24   ar
    37     9     3    1
@<TRIPOS>MOLECULE
*****
 33 37 0 0 0
SMALL
GASTEIGER

@<TRIPOS>ATOM
      1 C         141.8417  140.2373  161.0903 C.ar    1  UNL1        0.1829
      2 N         141.0701  141.0905  162.0529 N.ar    1  UNL1       -0.2103
      3 C         140.2972  140.1813  162.9617 C.ar    1  UNL1        0.1414
      4 N         140.5912  138.7661  162.5608 N.ar    1  UNL1       -0.2361
      5 N         141.5458  138.8007  161.4043 N.ar    1  UNL1       -0.1488
      6 C         139.9517  137.6287  163.3007 C.3     1  UNL1        0.1289
      7 C         139.0183  137.9066  164.4415 C.3     1  UNL1        0.0272
      8 C         138.7243  139.3218  164.8424 C.3     1  UNL1        0.0140
      9 C         139.3638  140.4592  164.1025 C.3     1  UNL1        0.0806
     10 C         144.0532  140.3170  157.7959 C.ar    1  UNL1        0.1548
     11 C         143.1450  139.8207  158.8817 C.ar    1  UNL1        0.0415
     12 C         142.7499  140.7335  160.0045 C.ar    1  UNL1        0.0406
     13 C         143.2629  142.1425  160.0414 C.ar    1  UNL1        0.0048
     14 C         144.1711  142.6388  158.9556 C.ar    1  UNL1        0.0207
     15 C         144.5662  141.7260  157.8328 C.ar    1  UNL1        0.0994
     16 N         145.4743  142.2222  156.7470 N.ar    1  UNL1       -0.2839
     17 C         146.9467  142.4776  156.8771 C.ar    1  UNL1        0.1826
     18 N         147.4519  142.9634  155.5510 N.ar    1  UNL1       -0.2280
     19 C         146.2918  143.0082  154.6012 C.ar    1  UNL1        0.0786
     20 C         146.3446  143.4360  153.1644 C.3     1  UNL1        0.0538
     21 C         145.0696  142.5502  155.3404 C.ar    1  UNL1        0.0963
     22 C         143.4499  139.0426  155.6137 C.3     1  UNL1        0.2525
     23 O         144.4483  139.4041  156.6731 O.3     1  UNL1       -0.4700
     24 C         139.0698  141.8744  164.5034 C.ar    1  UNL1       -0.0114
     25 C         137.9365  142.6164  163.8591 C.ar    1  UNL1       -0.0039
     26 C         137.6426  144.0316  164.2600 C.ar    1  UNL1       -0.0003
     27 C         138.4818  144.7049  165.3051 C.ar    1  UNL1       -0.0001
     28 C         139.6151  143.9628  165.9494 C.ar    1  UNL1        0.0035
     29 C         139.9091  142.5476  165.5485 C.ar    1  UNL1        0.0679
     30 C         141.0424  141.8056  166.1928 C.3     1  UNL1        0.4183
     31 F         142.1757  141.0636  166.8371 F       1  UNL1       -0.1659
     32 F         140.1098  141.3031  167.2547 F       1  UNL1       -0.1659
     33 F         141.9750  142.3081  165.1309 F       1  UNL1       -0.1659
@<TRIPOS>BOND
     1    22    23    1
     2    23    10    1
     3    10    11   ar
     4    11    12   ar
     5    12     1    1
     6     1     2   ar
     7     2     3   ar
     8     3     4   ar
     9     4     5   ar
    10     4     6    1
    11     6     7    1
    12     7     8    1
    13     8     9    1
    14     9    24    1
    15    24    25   ar
    16    25    26   ar
    17    26    27   ar
    18    27    28   ar
    19    28    29   ar
    20    29    30    1
    21    30    31    1
    22    30    32    1
    23    30    33    1
    24    12    13   ar
    25    13    14   ar
    26    14    15   ar
    27    15    16    1
    28    16    17   ar
    29    17    18   ar
    30    18    19   ar
    31    19    20    1
    32    19    21   ar
    33    15    10   ar
    34    21    16   ar
    35     5     1   ar
    36    29    24   ar
    37     9     3    1
@<TRIPOS>MOLECULE
*****
 33 37 0 0 0
SMALL
GASTEIGER

@<TRIPOS>ATOM
      1 C         141.8503  138.8529  161.3131 C.ar    1  UNL1        0.1829
      2 N         141.9540  140.2149  161.9329 N.ar    1  UNL1       -0.2103
      3 C         142.2165  140.0383  163.3991 C.ar    1  UNL1        0.1414
      4 N         142.2749  138.5670  163.6856 N.ar    1  UNL1       -0.2361
      5 N         142.0486  137.8345  162.3964 N.ar    1  UNL1       -0.1488
      6 C         142.5267  138.0845  165.0833 C.3     1  UNL1        0.1289
      7 C         142.7200  139.0733  166.1946 C.3     1  UNL1        0.0272
      8 C         142.6615  140.5445  165.9082 C.3     1  UNL1        0.0140
      9 C         142.4098  141.0270  164.5104 C.3     1  UNL1        0.0806
     10 C         142.4486  137.7671  157.5431 C.ar    1  UNL1        0.1548
     11 C         142.7055  138.0594  158.9917 C.ar    1  UNL1        0.0415
     12 C         141.5933  138.5606  159.8645 C.ar    1  UNL1        0.0406
     13 C         140.2241  138.7696  159.2886 C.ar    1  UNL1        0.0048
     14 C         139.9672  138.4773  157.8399 C.ar    1  UNL1        0.0207
     15 C         141.0794  137.9761  156.9672 C.ar    1  UNL1        0.0994
     16 N         140.8224  137.6838  155.5186 N.ar    1  UNL1       -0.2839
     17 C         140.8680  138.6786  154.3968 C.ar    1  UNL1        0.1826
     18 N         140.5485  137.9550  153.1223 N.ar    1  UNL1       -0.2280
     19 C         140.3055  136.5130  153.4563 C.ar    1  UNL1        0.0786
     20 C         139.9548  135.4290  152.4807 C.3     1  UNL1        0.0538
     21 C         140.4748  136.3454  154.9373 C.ar    1  UNL1        0.0963
     22 C         143.7186  135.7941  156.4275 C.3     1  UNL1        0.2525
     23 O         143.5609  137.2659  156.6703 O.3     1  UNL1       -0.4700
     24 C         142.3513  142.4982  164.2240 C.ar    1  UNL1       -0.0114
     25 C         141.0503  143.2348  164.3453 C.ar    1  UNL1       -0.0039
     26 C         140.9919  144.7061  164.0588 C.ar    1  UNL1       -0.0003
     27 C         142.2344  145.4407  163.6510 C.ar    1  UNL1       -0.0001
     28 C         143.5354  144.7041  163.5297 C.ar    1  UNL1        0.0035
     29 C         143.5939  143.2329  163.8161 C.ar    1  UNL1        0.0679
     30 C         144.8949  142.4963  163.6948 C.3     1  UNL1        0.4183
     31 F         146.1960  141.7597  163.5734 F       1  UNL1       -0.1659
     32 F         145.2224  142.8401  165.1176 F       1  UNL1       -0.1659
     33 F         144.5675  142.1524  162.2719 F       1  UNL1       -0.1659
@<TRIPOS>BOND
     1    22    23    1
     2    23    10    1
     3    10    11   ar
     4    11    12   ar
     5    12     1    1
     6     1     2   ar
     7     2     3   ar
     8     3     4   ar
     9     4     5   ar
    10     4     6    1
    11     6     7    1
    12     7     8    1
    13     8     9    1
    14     9    24    1
    15    24    25   ar
    16    25    26   ar
    17    26    27   ar
    18    27    28   ar
    19    28    29   ar
    20    29    30    1
    21    30    31    1
    22    30    32    1
    23    30    33    1
    24    12    13   ar
    25    13    14   ar
    26    14    15   ar
    27    15    16    1
    28    16    17   ar
    29    17    18   ar
    30    18    19   ar
    31    19    20    1
    32    19    21   ar
    33    15    10   ar
    34    21    16   ar
    35     5     1   ar
    36    29    24   ar
    37     9     3    1
@<TRIPOS>MOLECULE
*****
 33 37 0 0 0
SMALL
GASTEIGER

@<TRIPOS>ATOM
      1 C         140.4536  139.4467  161.5392 C.ar    1  UNL1        0.1829
      2 N         141.0677  140.6520  162.1873 N.ar    1  UNL1       -0.2103
      3 C         140.5101  140.7669  163.5751 C.ar    1  UNL1        0.1414
      4 N         139.5513  139.6326  163.7847 N.ar    1  UNL1       -0.2361
      5 N         139.5163  138.8167  162.5265 N.ar    1  UNL1       -0.1488
      6 C         138.8338  139.4892  165.0941 C.3     1  UNL1        0.1289
      7 C         139.0753  140.4801  166.1940 C.3     1  UNL1        0.0272
      8 C         140.0341  141.6145  165.9844 C.3     1  UNL1        0.0140
      9 C         140.7515  141.7578  164.6749 C.3     1  UNL1        0.0806
     10 C         139.9250  138.5237  157.7158 C.ar    1  UNL1        0.1548
     11 C         139.6502  139.0130  159.1069 C.ar    1  UNL1        0.0415
     12 C         140.7284  138.9574  160.1482 C.ar    1  UNL1        0.0406
     13 C         142.0814  138.4123  159.7985 C.ar    1  UNL1        0.0048
     14 C         142.3562  137.9230  158.4074 C.ar    1  UNL1        0.0207
     15 C         141.2780  137.9787  157.3661 C.ar    1  UNL1        0.0994
     16 N         141.5528  137.4893  155.9750 N.ar    1  UNL1       -0.2839
     17 C         141.6545  136.0547  155.5490 C.ar    1  UNL1        0.1826
     18 N         141.9387  136.0274  154.0765 N.ar    1  UNL1       -0.2280
     19 C         142.0127  137.4452  153.5923 C.ar    1  UNL1        0.0786
     20 C         142.2786  137.8827  152.1824 C.3     1  UNL1        0.0538
     21 C         141.7743  138.3487  154.7657 C.ar    1  UNL1        0.0963
     22 C         138.5019  139.8847  156.0210 C.3     1  UNL1        0.2525
     23 O         138.8468  138.5793  156.6745 O.3     1  UNL1       -0.4700
     24 C         141.7104  142.8922  164.4653 C.ar    1  UNL1       -0.0114
     25 C         143.1696  142.7045  164.7575 C.ar    1  UNL1       -0.0039
     26 C         144.1284  143.8388  164.5479 C.ar    1  UNL1       -0.0003
     27 C         143.6280  145.1608  164.0461 C.ar    1  UNL1       -0.0001
     28 C         142.1688  145.3485  163.7539 C.ar    1  UNL1        0.0035
     29 C         141.2100  144.2142  163.9635 C.ar    1  UNL1        0.0679
     30 C         139.7507  144.4019  163.6713 C.3     1  UNL1        0.4183
     31 F         138.2915  144.5896  163.3790 F       1  UNL1       -0.1659
     32 F         139.5411  144.9326  165.0585 F       1  UNL1       -0.1659
     33 F         139.9603  143.8713  162.2840 F       1  UNL1       -0.1659
@<TRIPOS>BOND
     1    22    23    1
     2    23    10    1
     3    10    11   ar
     4    11    12   ar
     5    12     1    1
     6     1     2   ar
     7     2     3   ar
     8     3     4   ar
     9     4     5   ar
    10     4     6    1
    11     6     7    1
    12     7     8    1
    13     8     9    1
    14     9    24    1
    15    24    25   ar
    16    25    26   ar
    17    26    27   ar
    18    27    28   ar
    19    28    29   ar
    20    29    30    1
    21    30    31    1
    22    30    32    1
    23    30    33    1
    24    12    13   ar
    25    13    14   ar
    26    14    15   ar
    27    15    16    1
    28    16    17   ar
    29    17    18   ar
    30    18    19   ar
    31    19    20    1
    32    19    21   ar
    33    15    10   ar
    34    21    16   ar
    35     5     1   ar
    36    29    24   ar
    37     9     3    1
@<TRIPOS>MOLECULE
*****
 33 37 0 0 0
SMALL
GASTEIGER

@<TRIPOS>ATOM
      1 C         140.9655  141.7733  159.9306 C.ar    1  UNL1        0.1829
      2 N         141.2673  141.9638  161.3875 N.ar    1  UNL1       -0.2103
      3 C         140.8950  143.3688  161.7583 C.ar    1  UNL1        0.1414
      4 N         140.3631  144.0466  160.5304 N.ar    1  UNL1       -0.2361
      5 N         140.4067  143.0606  159.4009 N.ar    1  UNL1       -0.1488
      6 C         139.9077  145.4741  160.5996 C.3     1  UNL1        0.1289
      7 C         139.9843  146.2238  161.8965 C.3     1  UNL1        0.0272
      8 C         140.5162  145.5459  163.1243 C.3     1  UNL1        0.0140
      9 C         140.9716  144.1184  163.0552 C.3     1  UNL1        0.0806
     10 C         142.6927  139.0510  157.6163 C.ar    1  UNL1        0.1548
     11 C         142.4740  140.3080  158.4050 C.ar    1  UNL1        0.0415
     12 C         141.1842  140.5163  159.1419 C.ar    1  UNL1        0.0406
     13 C         140.1131  139.4675  159.0901 C.ar    1  UNL1        0.0048
     14 C         140.3318  138.2105  158.3014 C.ar    1  UNL1        0.0207
     15 C         141.6216  138.0022  157.5645 C.ar    1  UNL1        0.0994
     16 N         141.8402  136.7452  156.7758 N.ar    1  UNL1       -0.2839
     17 C         141.0463  136.3040  155.5821 C.ar    1  UNL1        0.1826
     18 N         141.6066  134.9948  155.1108 N.ar    1  UNL1       -0.2280
     19 C         142.7469  134.6269  156.0133 C.ar    1  UNL1        0.0786
     20 C         143.5941  133.3937  155.9057 C.3     1  UNL1        0.0538
     21 C         142.8913  135.7087  157.0422 C.ar    1  UNL1        0.0963
     22 C         144.0992  139.2523  155.4411 C.3     1  UNL1        0.2525
     23 O         143.9825  138.8428  156.8794 O.3     1  UNL1       -0.4700
     24 C         141.5035  143.4406  164.2830 C.ar    1  UNL1       -0.0114
     25 C         140.5558  142.8338  165.2749 C.ar    1  UNL1       -0.0039
     26 C         141.0878  142.1560  166.5027 C.ar    1  UNL1       -0.0003
     27 C         142.5674  142.0848  166.7387 C.ar    1  UNL1       -0.0001
     28 C         143.5150  142.6916  165.7468 C.ar    1  UNL1        0.0035
     29 C         142.9831  143.3694  164.5190 C.ar    1  UNL1        0.0679
     30 C         143.9308  143.9762  163.5271 C.3     1  UNL1        0.4183
     31 F         144.8785  144.5828  162.5353 F       1  UNL1       -0.1659
     32 F         143.8121  145.2996  164.2232 F       1  UNL1       -0.1659
     33 F         144.0496  142.6528  162.8311 F       1  UNL1       -0.1659
@<TRIPOS>BOND
     1    22    23    1
     2    23    10    1
     3    10    11   ar
     4    11    12   ar
     5    12     1    1
     6     1     2   ar
     7     2     3   ar
     8     3     4   ar
     9     4     5   ar
    10     4     6    1
    11     6     7    1
    12     7     8    1
    13     8     9    1
    14     9    24    1
    15    24    25   ar
    16    25    26   ar
    17    26    27   ar
    18    27    28   ar
    19    28    29   ar
    20    29    30    1
    21    30    31    1
    22    30    32    1
    23    30    33    1
    24    12    13   ar
    25    13    14   ar
    26    14    15   ar
    27    15    16    1
    28    16    17   ar
    29    17    18   ar
    30    18    19   ar
    31    19    20    1
    32    19    21   ar
    33    15    10   ar
    34    21    16   ar
    35     5     1   ar
    36    29    24   ar
    37     9     3    1
