@<TRIPOS>MOLECULE
*****
 30 33 0 0 0
SMALL
GASTEIGER

@<TRIPOS>ATOM
      1 C         139.7730  139.3350  159.0203 C.2     1  UNL1       -0.0088
      2 C         139.4043  138.4264  160.1555 C.2     1  UNL1       -0.0032
      3 C         139.3025  138.9712  161.5495 C.2     1  UNL1       -0.0003
      4 C         140.5429  139.3799  162.2873 C.2     1  UNL1       -0.0000
      5 C         140.4412  139.9246  163.6812 C.ar    1  UNL1       -0.0000
      6 C         139.4374  139.3533  164.6383 C.ar    1  UNL1       -0.0000
      7 C         139.3357  139.8980  166.0322 C.ar    1  UNL1        0.0000
      8 C         140.2378  141.0140  166.4690 C.ar    1  UNL1        0.0000
      9 C         141.2415  141.5853  165.5119 C.ar    1  UNL1        0.0000
     10 C         141.3432  141.0406  164.1180 C.ar    1  UNL1       -0.0000
     11 C         140.1360  141.5587  167.8629 C.ar    1  UNL1        0.0000
     12 C         140.5260  142.9798  168.1431 C.ar    1  UNL1        0.0000
     13 C         140.4243  143.5245  169.5371 C.ar    1  UNL1        0.0000
     14 C         139.9326  142.6481  170.6507 C.ar    1  UNL1        0.0000
     15 C         139.5427  141.2270  170.3705 C.ar    1  UNL1        0.0000
     16 C         139.6444  140.6823  168.9766 C.ar    1  UNL1        0.0000
     17 C         139.8748  138.7904  157.6264 C.3     1  UNL1        0.0992
     18 C         141.0779  136.8182  156.4377 C.3     1  UNL1        0.0902
     19 N         141.1398  138.1248  157.1718 N.3     1  UNL1       -0.2639
     20 C         142.4668  138.7660  157.4511 C.3     1  UNL1        0.0995
     21 C         142.9688  138.8673  158.8610 C.ar    1  UNL1       -0.0031
     22 C         142.9731  137.6552  159.7446 C.ar    1  UNL1       -0.0030
     23 C         143.4751  137.7565  161.1544 C.ar    1  UNL1       -0.0016
     24 C         143.9729  139.0700  161.6807 C.ar    1  UNL1        0.0119
     25 C         143.9686  140.2821  160.7972 C.ar    1  UNL1        0.1342
     26 C         143.4666  140.1808  159.3873 C.ar    1  UNL1        0.0337
     27 O         144.4664  141.5956  161.3234 O.3     1  UNL1       -0.4758
     28 C         144.9684  141.6969  162.7333 C.3     1  UNL1        0.2057
     29 C         144.9727  140.4847  163.6168 C.3     1  UNL1        0.0521
     30 C         144.4749  139.1713  163.0906 C.3     1  UNL1        0.0333
@<TRIPOS>BOND
     1    18    19    1
     2    19    17    1
     3    17     1    1
     4     1     2    2
     5     2     3    1
     6     3     4    2
     7     4     5    1
     8     5     6   ar
     9     6     7   ar
    10     7     8   ar
    11     8    11    1
    12    11    12   ar
    13    12    13   ar
    14    13    14   ar
    15    14    15   ar
    16    15    16   ar
    17     8     9   ar
    18     9    10   ar
    19    19    20    1
    20    20    21    1
    21    21    22   ar
    22    22    23   ar
    23    23    24   ar
    24    24    25   ar
    25    25    26   ar
    26    25    27    1
    27    27    28    1
    28    28    29    1
    29    29    30    1
    30    10     5   ar
    31    26    21   ar
    32    16    11   ar
    33    30    24    1
@<TRIPOS>MOLECULE
*****
 30 33 0 0 0
SMALL
GASTEIGER

@<TRIPOS>ATOM
      1 C         141.7978  144.9190  158.3572 C.2     1  UNL1       -0.0088
      2 C         140.8865  145.4699  159.4137 C.2     1  UNL1       -0.0032
      3 C         140.6806  144.7159  160.6941 C.2     1  UNL1       -0.0003
      4 C         140.9709  145.3772  162.0088 C.2     1  UNL1       -0.0000
      5 C         140.7651  144.6233  163.2891 C.ar    1  UNL1       -0.0000
      6 C         139.5003  144.8091  164.0739 C.ar    1  UNL1       -0.0000
      7 C         139.2945  144.0553  165.3542 C.ar    1  UNL1        0.0000
      8 C         140.3534  143.1155  165.8498 C.ar    1  UNL1        0.0000
      9 C         141.6182  142.9297  165.0650 C.ar    1  UNL1        0.0000
     10 C         141.8240  143.6836  163.7847 C.ar    1  UNL1       -0.0000
     11 C         140.1476  142.3617  167.1301 C.ar    1  UNL1        0.0000
     12 C         139.7832  140.9070  167.0937 C.ar    1  UNL1        0.0000
     13 C         139.5774  140.1532  168.3742 C.ar    1  UNL1        0.0000
     14 C         139.7359  140.8539  169.6909 C.ar    1  UNL1        0.0000
     15 C         140.1002  142.3086  169.7273 C.ar    1  UNL1        0.0000
     16 C         140.3060  143.0624  168.4469 C.ar    1  UNL1        0.0000
     17 C         142.0037  145.6729  157.0769 C.3     1  UNL1        0.0992
     18 C         141.6501  144.6759  154.7040 C.3     1  UNL1        0.0902
     19 N         141.1140  145.4073  155.8988 N.3     1  UNL1       -0.2639
     20 C         139.6883  145.8731  155.9154 C.3     1  UNL1        0.0995
     21 C         139.3737  147.3311  155.7558 C.ar    1  UNL1       -0.0031
     22 C         138.7805  148.0998  156.8991 C.ar    1  UNL1       -0.0030
     23 C         138.4659  149.5577  156.7396 C.ar    1  UNL1       -0.0016
     24 C         138.7445  150.2470  155.4367 C.ar    1  UNL1        0.0119
     25 C         139.3377  149.4782  154.2934 C.ar    1  UNL1        0.1342
     26 C         139.6523  148.0202  154.4530 C.ar    1  UNL1        0.0337
     27 O         139.6163  150.1674  152.9906 O.3     1  UNL1       -0.4758
     28 C         139.3016  151.6252  152.8310 C.3     1  UNL1        0.2057
     29 C         138.7084  152.3940  153.9743 C.3     1  UNL1        0.0521
     30 C         138.4298  151.7048  155.2771 C.3     1  UNL1        0.0333
@<TRIPOS>BOND
     1    18    19    1
     2    19    17    1
     3    17     1    1
     4     1     2    2
     5     2     3    1
     6     3     4    2
     7     4     5    1
     8     5     6   ar
     9     6     7   ar
    10     7     8   ar
    11     8    11    1
    12    11    12   ar
    13    12    13   ar
    14    13    14   ar
    15    14    15   ar
    16    15    16   ar
    17     8     9   ar
    18     9    10   ar
    19    19    20    1
    20    20    21    1
    21    21    22   ar
    22    22    23   ar
    23    23    24   ar
    24    24    25   ar
    25    25    26   ar
    26    25    27    1
    27    27    28    1
    28    28    29    1
    29    29    30    1
    30    10     5   ar
    31    26    21   ar
    32    16    11   ar
    33    30    24    1
@<TRIPOS>MOLECULE
*****
 30 33 0 0 0
SMALL
GASTEIGER

@<TRIPOS>ATOM
      1 C         142.4266  138.1667  159.2419 C.2     1  UNL1       -0.0088
      2 C         142.8650  137.6394  160.5760 C.2     1  UNL1       -0.0032
      3 C         142.5494  138.4061  161.8261 C.2     1  UNL1       -0.0003
      4 C         141.6120  137.8276  162.8442 C.2     1  UNL1       -0.0000
      5 C         141.2965  138.5943  164.0943 C.ar    1  UNL1       -0.0000
      6 C         139.9981  139.3361  164.2115 C.ar    1  UNL1       -0.0000
      7 C         139.6825  140.1027  165.4616 C.ar    1  UNL1        0.0000
      8 C         140.6655  140.1276  166.5944 C.ar    1  UNL1        0.0000
      9 C         141.9639  139.3857  166.4772 C.ar    1  UNL1        0.0000
     10 C         142.2794  138.6191  165.2270 C.ar    1  UNL1       -0.0000
     11 C         140.3500  140.8942  167.8445 C.ar    1  UNL1        0.0000
     12 C         140.8289  142.3073  167.9987 C.ar    1  UNL1        0.0000
     13 C         140.5133  143.0740  169.2488 C.ar    1  UNL1        0.0000
     14 C         139.7188  142.4275  170.3446 C.ar    1  UNL1        0.0000
     15 C         139.2399  141.0144  170.1904 C.ar    1  UNL1        0.0000
     16 C         139.5554  140.2478  168.9404 C.ar    1  UNL1        0.0000
     17 C         142.7420  137.4001  157.9919 C.3     1  UNL1        0.0992
     18 C         140.2864  137.6853  157.1930 C.3     1  UNL1        0.0902
     19 N         141.6599  137.1170  156.9924 N.3     1  UNL1       -0.2639
     20 C         141.9514  136.2656  155.7924 C.3     1  UNL1        0.0995
     21 C         142.1991  134.7955  155.9581 C.ar    1  UNL1       -0.0031
     22 C         141.3398  133.8036  155.2317 C.ar    1  UNL1       -0.0030
     23 C         141.5875  132.3335  155.3973 C.ar    1  UNL1       -0.0016
     24 C         142.6946  131.8553  156.2894 C.ar    1  UNL1        0.0119
     25 C         143.5540  132.8472  157.0158 C.ar    1  UNL1        0.1342
     26 C         143.3062  134.3174  156.8501 C.ar    1  UNL1        0.0337
     27 O         144.6610  132.3691  157.9078 O.3     1  UNL1       -0.4758
     28 C         144.9087  130.8990  158.0735 C.3     1  UNL1        0.2057
     29 C         144.0494  129.9071  157.3471 C.3     1  UNL1        0.0521
     30 C         142.9423  130.3852  156.4551 C.3     1  UNL1        0.0333
@<TRIPOS>BOND
     1    18    19    1
     2    19    17    1
     3    17     1    1
     4     1     2    2
     5     2     3    1
     6     3     4    2
     7     4     5    1
     8     5     6   ar
     9     6     7   ar
    10     7     8   ar
    11     8    11    1
    12    11    12   ar
    13    12    13   ar
    14    13    14   ar
    15    14    15   ar
    16    15    16   ar
    17     8     9   ar
    18     9    10   ar
    19    19    20    1
    20    20    21    1
    21    21    22   ar
    22    22    23   ar
    23    23    24   ar
    24    24    25   ar
    25    25    26   ar
    26    25    27    1
    27    27    28    1
    28    28    29    1
    29    29    30    1
    30    10     5   ar
    31    26    21   ar
    32    16    11   ar
    33    30    24    1
@<TRIPOS>MOLECULE
*****
 30 33 0 0 0
SMALL
GASTEIGER

@<TRIPOS>ATOM
      1 C         142.3006  138.2637  159.3719 C.2     1  UNL1       -0.0088
      2 C         143.2458  137.9664  160.4980 C.2     1  UNL1       -0.0032
      3 C         142.8983  138.3793  161.8977 C.2     1  UNL1       -0.0003
      4 C         143.8796  139.1689  162.7121 C.2     1  UNL1       -0.0000
      5 C         143.5322  139.5818  164.1117 C.ar    1  UNL1       -0.0000
      6 C         143.1583  138.5446  165.1287 C.ar    1  UNL1       -0.0000
      7 C         142.8108  138.9575  166.5282 C.ar    1  UNL1        0.0000
      8 C         142.8374  140.4077  166.9108 C.ar    1  UNL1        0.0000
      9 C         143.2113  141.4449  165.8938 C.ar    1  UNL1        0.0000
     10 C         143.5588  141.0320  164.4942 C.ar    1  UNL1       -0.0000
     11 C         142.4900  140.8206  168.3104 C.ar    1  UNL1        0.0000
     12 C         142.9919  142.1255  168.8538 C.ar    1  UNL1        0.0000
     13 C         142.6444  142.5383  170.2535 C.ar    1  UNL1        0.0000
     14 C         141.7951  141.6464  171.1095 C.ar    1  UNL1        0.0000
     15 C         141.2932  140.3415  170.5661 C.ar    1  UNL1        0.0000
     16 C         141.6406  139.9286  169.1665 C.ar    1  UNL1        0.0000
     17 C         142.6480  137.8509  157.9723 C.3     1  UNL1        0.0992
     18 C         140.1390  137.7297  157.3090 C.3     1  UNL1        0.0902
     19 N         141.5719  137.3760  157.0414 N.3     1  UNL1       -0.2639
     20 C         141.9287  136.5476  155.8430 C.3     1  UNL1        0.0995
     21 C         142.1911  135.0788  155.9978 C.ar    1  UNL1       -0.0031
     22 C         141.3282  134.0831  155.2807 C.ar    1  UNL1       -0.0030
     23 C         141.5906  132.6144  155.4354 C.ar    1  UNL1       -0.0016
     24 C         142.7158  132.1412  156.3072 C.ar    1  UNL1        0.0119
     25 C         143.5786  133.1368  157.0243 C.ar    1  UNL1        0.1342
     26 C         143.3163  134.6056  156.8696 C.ar    1  UNL1        0.0337
     27 O         144.7038  132.6637  157.8961 O.3     1  UNL1       -0.4758
     28 C         144.9661  131.1950  158.0508 C.3     1  UNL1        0.2057
     29 C         144.1033  130.1994  157.3337 C.3     1  UNL1        0.0521
     30 C         142.9781  130.6725  156.4619 C.3     1  UNL1        0.0333
@<TRIPOS>BOND
     1    18    19    1
     2    19    17    1
     3    17     1    1
     4     1     2    2
     5     2     3    1
     6     3     4    2
     7     4     5    1
     8     5     6   ar
     9     6     7   ar
    10     7     8   ar
    11     8    11    1
    12    11    12   ar
    13    12    13   ar
    14    13    14   ar
    15    14    15   ar
    16    15    16   ar
    17     8     9   ar
    18     9    10   ar
    19    19    20    1
    20    20    21    1
    21    21    22   ar
    22    22    23   ar
    23    23    24   ar
    24    24    25   ar
    25    25    26   ar
    26    25    27    1
    27    27    28    1
    28    28    29    1
    29    29    30    1
    30    10     5   ar
    31    26    21   ar
    32    16    11   ar
    33    30    24    1
@<TRIPOS>MOLECULE
*****
 30 33 0 0 0
SMALL
GASTEIGER

@<TRIPOS>ATOM
      1 C         138.8467  142.6721  159.2482 C.2     1  UNL1       -0.0088
      2 C         140.2969  142.7225  159.6283 C.2     1  UNL1       -0.0032
      3 C         140.6901  142.8707  161.0683 C.2     1  UNL1       -0.0003
      4 C         140.2376  141.8573  162.0774 C.2     1  UNL1       -0.0000
      5 C         140.6307  142.0055  163.5173 C.ar    1  UNL1       -0.0000
      6 C         139.9422  143.0192  164.3823 C.ar    1  UNL1       -0.0000
      7 C         140.3353  143.1674  165.8222 C.ar    1  UNL1        0.0000
      8 C         141.4171  142.3018  166.3972 C.ar    1  UNL1        0.0000
      9 C         142.1056  141.2880  165.5323 C.ar    1  UNL1        0.0000
     10 C         141.7124  141.1399  164.0923 C.ar    1  UNL1       -0.0000
     11 C         141.8102  142.4499  167.8372 C.ar    1  UNL1        0.0000
     12 C         143.2201  142.1652  168.2628 C.ar    1  UNL1        0.0000
     13 C         143.6132  142.3134  169.7029 C.ar    1  UNL1        0.0000
     14 C         142.5964  142.7463  170.7171 C.ar    1  UNL1        0.0000
     15 C         141.1866  143.0311  170.2915 C.ar    1  UNL1        0.0000
     16 C         140.7934  142.8829  168.8515 C.ar    1  UNL1        0.0000
     17 C         138.4535  142.5239  157.8083 C.3     1  UNL1        0.0992
     18 C         136.5958  141.0074  156.8087 C.3     1  UNL1        0.0902
     19 N         138.0058  141.1908  157.2865 N.3     1  UNL1       -0.2639
     20 C         138.9680  140.0410  157.2424 C.3     1  UNL1        0.0995
     21 C         139.5371  139.4899  158.5162 C.ar    1  UNL1       -0.0031
     22 C         141.0186  139.3007  158.6557 C.ar    1  UNL1       -0.0030
     23 C         141.5877  138.7498  159.9294 C.ar    1  UNL1       -0.0016
     24 C         140.6753  138.3879  161.0638 C.ar    1  UNL1        0.0119
     25 C         139.1939  138.5771  160.9244 C.ar    1  UNL1        0.1342
     26 C         138.6248  139.1282  159.6505 C.ar    1  UNL1        0.0337
     27 O         138.2815  138.2154  162.0586 O.3     1  UNL1       -0.4758
     28 C         138.8506  137.6644  163.3324 C.3     1  UNL1        0.2057
     29 C         140.3321  137.4752  163.4718 C.3     1  UNL1        0.0521
     30 C         141.2445  137.8370  162.3375 C.3     1  UNL1        0.0333
@<TRIPOS>BOND
     1    18    19    1
     2    19    17    1
     3    17     1    1
     4     1     2    2
     5     2     3    1
     6     3     4    2
     7     4     5    1
     8     5     6   ar
     9     6     7   ar
    10     7     8   ar
    11     8    11    1
    12    11    12   ar
    13    12    13   ar
    14    13    14   ar
    15    14    15   ar
    16    15    16   ar
    17     8     9   ar
    18     9    10   ar
    19    19    20    1
    20    20    21    1
    21    21    22   ar
    22    22    23   ar
    23    23    24   ar
    24    24    25   ar
    25    25    26   ar
    26    25    27    1
    27    27    28    1
    28    28    29    1
    29    29    30    1
    30    10     5   ar
    31    26    21   ar
    32    16    11   ar
    33    30    24    1
@<TRIPOS>MOLECULE
*****
 30 33 0 0 0
SMALL
GASTEIGER

@<TRIPOS>ATOM
      1 C         139.5461  139.6527  166.4334 C.2     1  UNL1       -0.0088
      2 C         139.2327  138.3361  165.7866 C.2     1  UNL1       -0.0032
      3 C         139.4705  138.1467  164.3176 C.2     1  UNL1       -0.0003
      4 C         140.6106  138.8525  163.6453 C.2     1  UNL1       -0.0000
      5 C         140.8484  138.6631  162.1765 C.ar    1  UNL1       -0.0000
      6 C         139.7312  138.8867  161.2008 C.ar    1  UNL1       -0.0000
      7 C         139.9689  138.6973  159.7320 C.ar    1  UNL1        0.0000
      8 C         141.3240  138.2843  159.2387 C.ar    1  UNL1        0.0000
      9 C         142.4413  138.0608  160.2143 C.ar    1  UNL1        0.0000
     10 C         142.2034  138.2502  161.6832 C.ar    1  UNL1       -0.0000
     11 C         141.5618  138.0949  157.7699 C.ar    1  UNL1        0.0000
     12 C         142.8914  138.4504  157.1734 C.ar    1  UNL1        0.0000
     13 C         143.1292  138.2610  155.7044 C.ar    1  UNL1        0.0000
     14 C         142.0374  137.7162  154.8321 C.ar    1  UNL1        0.0000
     15 C         140.7078  137.3607  155.4286 C.ar    1  UNL1        0.0000
     16 C         140.4700  137.5501  156.8974 C.ar    1  UNL1        0.0000
     17 C         139.3084  139.8422  167.9022 C.3     1  UNL1        0.0992
     18 C         139.9951  141.6466  169.6407 C.3     1  UNL1        0.0902
     19 N         140.3579  140.4924  168.7541 N.3     1  UNL1       -0.2639
     20 C         141.7703  139.9884  168.7194 C.3     1  UNL1        0.0995
     21 C         142.5454  140.0168  167.4355 C.ar    1  UNL1       -0.0031
     22 C         143.0534  138.7383  166.8376 C.ar    1  UNL1       -0.0030
     23 C         143.8285  138.7667  165.5538 C.ar    1  UNL1       -0.0016
     24 C         144.0957  140.0737  164.8677 C.ar    1  UNL1        0.0119
     25 C         143.5878  141.3522  165.4656 C.ar    1  UNL1        0.1342
     26 C         142.8126  141.3237  166.7495 C.ar    1  UNL1        0.0337
     27 O         143.8550  142.6591  164.7797 O.3     1  UNL1       -0.4758
     28 C         144.6302  142.6874  163.4958 C.3     1  UNL1        0.2057
     29 C         145.1381  141.4090  162.8979 C.3     1  UNL1        0.0521
     30 C         144.8709  140.1021  163.5839 C.3     1  UNL1        0.0333
@<TRIPOS>BOND
     1    18    19    1
     2    19    17    1
     3    17     1    1
     4     1     2    2
     5     2     3    1
     6     3     4    2
     7     4     5    1
     8     5     6   ar
     9     6     7   ar
    10     7     8   ar
    11     8    11    1
    12    11    12   ar
    13    12    13   ar
    14    13    14   ar
    15    14    15   ar
    16    15    16   ar
    17     8     9   ar
    18     9    10   ar
    19    19    20    1
    20    20    21    1
    21    21    22   ar
    22    22    23   ar
    23    23    24   ar
    24    24    25   ar
    25    25    26   ar
    26    25    27    1
    27    27    28    1
    28    28    29    1
    29    29    30    1
    30    10     5   ar
    31    26    21   ar
    32    16    11   ar
    33    30    24    1
@<TRIPOS>MOLECULE
*****
 30 33 0 0 0
SMALL
GASTEIGER

@<TRIPOS>ATOM
      1 C         140.1302  138.7555  158.8660 C.2     1  UNL1       -0.0088
      2 C         139.5149  138.1723  160.1034 C.2     1  UNL1       -0.0032
      3 C         139.5925  138.9181  161.4026 C.2     1  UNL1       -0.0003
      4 C         139.6425  138.1641  162.6983 C.2     1  UNL1       -0.0000
      5 C         139.7201  138.9098  163.9975 C.ar    1  UNL1       -0.0000
      6 C         138.6378  138.7446  165.0228 C.ar    1  UNL1       -0.0000
      7 C         138.7153  139.4903  166.3220 C.ar    1  UNL1        0.0000
      8 C         139.8752  140.4012  166.5959 C.ar    1  UNL1        0.0000
      9 C         140.9575  140.5664  165.5705 C.ar    1  UNL1        0.0000
     10 C         140.8799  139.8206  164.2713 C.ar    1  UNL1       -0.0000
     11 C         139.9528  141.1469  167.8950 C.ar    1  UNL1        0.0000
     12 C         140.4531  142.5608  167.9196 C.ar    1  UNL1        0.0000
     13 C         140.5307  143.3065  169.2188 C.ar    1  UNL1        0.0000
     14 C         140.1079  142.6383  170.4935 C.ar    1  UNL1        0.0000
     15 C         139.6076  141.2245  170.4689 C.ar    1  UNL1        0.0000
     16 C         139.5300  140.4788  169.1698 C.ar    1  UNL1        0.0000
     17 C         140.0527  138.0098  157.5668 C.3     1  UNL1        0.0992
     18 C         142.1808  139.2051  156.6766 C.3     1  UNL1        0.0902
     19 N         141.1900  138.0822  156.5914 N.3     1  UNL1       -0.2639
     20 C         141.3365  137.0316  155.5309 C.3     1  UNL1        0.0995
     21 C         141.8442  135.6670  155.8919 C.ar    1  UNL1       -0.0031
     22 C         142.9318  135.5177  156.9141 C.ar    1  UNL1       -0.0030
     23 C         143.4395  134.1533  157.2752 C.ar    1  UNL1       -0.0016
     24 C         142.8597  132.9380  156.6139 C.ar    1  UNL1        0.0119
     25 C         141.7722  133.0873  155.5917 C.ar    1  UNL1        0.1342
     26 C         141.2644  134.4519  155.2307 C.ar    1  UNL1        0.0337
     27 O         141.1924  131.8722  154.9305 O.3     1  UNL1       -0.4758
     28 C         141.7001  130.5078  155.2915 C.3     1  UNL1        0.2057
     29 C         142.7877  130.3584  156.3138 C.3     1  UNL1        0.0521
     30 C         143.3675  131.5736  156.9750 C.3     1  UNL1        0.0333
@<TRIPOS>BOND
     1    18    19    1
     2    19    17    1
     3    17     1    1
     4     1     2    2
     5     2     3    1
     6     3     4    2
     7     4     5    1
     8     5     6   ar
     9     6     7   ar
    10     7     8   ar
    11     8    11    1
    12    11    12   ar
    13    12    13   ar
    14    13    14   ar
    15    14    15   ar
    16    15    16   ar
    17     8     9   ar
    18     9    10   ar
    19    19    20    1
    20    20    21    1
    21    21    22   ar
    22    22    23   ar
    23    23    24   ar
    24    24    25   ar
    25    25    26   ar
    26    25    27    1
    27    27    28    1
    28    28    29    1
    29    29    30    1
    30    10     5   ar
    31    26    21   ar
    32    16    11   ar
    33    30    24    1
@<TRIPOS>MOLECULE
*****
 30 33 0 0 0
SMALL
GASTEIGER

@<TRIPOS>ATOM
      1 C         142.5923  138.1611  159.5891 C.2     1  UNL1       -0.0088
      2 C         143.2414  139.4801  159.8872 C.2     1  UNL1       -0.0032
      3 C         143.2325  140.0212  161.2862 C.2     1  UNL1       -0.0003
      4 C         141.9501  140.0719  162.0626 C.2     1  UNL1       -0.0000
      5 C         141.9411  140.6129  163.4616 C.ar    1  UNL1       -0.0000
      6 C         141.1995  141.8795  163.7712 C.ar    1  UNL1       -0.0000
      7 C         141.1906  142.4205  165.1701 C.ar    1  UNL1        0.0000
      8 C         141.9233  141.6950  166.2596 C.ar    1  UNL1        0.0000
      9 C         142.6650  140.4284  165.9500 C.ar    1  UNL1        0.0000
     10 C         142.6738  139.8874  164.5509 C.ar    1  UNL1       -0.0000
     11 C         141.9144  142.2360  167.6586 C.ar    1  UNL1        0.0000
     12 C         143.1542  142.1613  168.4995 C.ar    1  UNL1        0.0000
     13 C         143.1453  142.7023  169.8986 C.ar    1  UNL1        0.0000
     14 C         141.8965  143.3181  170.4566 C.ar    1  UNL1        0.0000
     15 C         140.6567  143.3929  169.6156 C.ar    1  UNL1        0.0000
     16 C         140.6656  142.8519  168.2166 C.ar    1  UNL1        0.0000
     17 C         142.6012  137.6200  158.1901 C.3     1  UNL1        0.0992
     18 C         141.7722  138.1522  155.7861 C.3     1  UNL1        0.0902
     19 N         141.4867  137.9626  157.2464 N.3     1  UNL1       -0.2639
     20 C         140.0869  138.1156  157.7630 C.3     1  UNL1        0.0995
     21 C         139.7285  139.2927  158.6209 C.ar    1  UNL1       -0.0031
     22 C         140.1718  140.6705  158.2270 C.ar    1  UNL1       -0.0030
     23 C         139.8134  141.8476  159.0849 C.ar    1  UNL1       -0.0016
     24 C         139.0117  141.6470  160.3368 C.ar    1  UNL1        0.0119
     25 C         138.5685  140.2692  160.7307 C.ar    1  UNL1        0.1342
     26 C         138.9268  139.0920  159.8727 C.ar    1  UNL1        0.0337
     27 O         137.7668  140.0684  161.9825 O.3     1  UNL1       -0.4758
     28 C         137.4085  141.2455  162.8404 C.3     1  UNL1        0.2057
     29 C         137.8518  142.6233  162.4465 C.3     1  UNL1        0.0521
     30 C         138.6534  142.8240  161.1947 C.3     1  UNL1        0.0333
@<TRIPOS>BOND
     1    18    19    1
     2    19    17    1
     3    17     1    1
     4     1     2    2
     5     2     3    1
     6     3     4    2
     7     4     5    1
     8     5     6   ar
     9     6     7   ar
    10     7     8   ar
    11     8    11    1
    12    11    12   ar
    13    12    13   ar
    14    13    14   ar
    15    14    15   ar
    16    15    16   ar
    17     8     9   ar
    18     9    10   ar
    19    19    20    1
    20    20    21    1
    21    21    22   ar
    22    22    23   ar
    23    23    24   ar
    24    24    25   ar
    25    25    26   ar
    26    25    27    1
    27    27    28    1
    28    28    29    1
    29    29    30    1
    30    10     5   ar
    31    26    21   ar
    32    16    11   ar
    33    30    24    1
@<TRIPOS>MOLECULE
*****
 30 33 0 0 0
SMALL
GASTEIGER

@<TRIPOS>ATOM
      1 C         142.6142  139.2515  166.9690 C.2     1  UNL1       -0.0088
      2 C         143.1209  140.1852  165.9100 C.2     1  UNL1       -0.0032
      3 C         143.0763  139.7778  164.4671 C.2     1  UNL1       -0.0003
      4 C         141.7555  139.5881  163.7818 C.2     1  UNL1       -0.0000
      5 C         141.7108  139.1807  162.3390 C.ar    1  UNL1       -0.0000
      6 C         140.6607  139.7492  161.4312 C.ar    1  UNL1       -0.0000
      7 C         140.6160  139.3417  159.9884 C.ar    1  UNL1        0.0000
      8 C         141.6215  138.3657  159.4531 C.ar    1  UNL1        0.0000
      9 C         142.6716  137.7971  160.3609 C.ar    1  UNL1        0.0000
     10 C         142.7163  138.2047  161.8038 C.ar    1  UNL1       -0.0000
     11 C         141.5768  137.9582  158.0103 C.ar    1  UNL1        0.0000
     12 C         142.8491  137.6489  157.2785 C.ar    1  UNL1        0.0000
     13 C         142.8044  137.2414  155.8356 C.ar    1  UNL1        0.0000
     14 C         141.4873  137.1433  155.1244 C.ar    1  UNL1        0.0000
     15 C         140.2150  137.4526  155.8562 C.ar    1  UNL1        0.0000
     16 C         140.2597  137.8601  157.2991 C.ar    1  UNL1        0.0000
     17 C         142.6588  139.6590  168.4119 C.3     1  UNL1        0.0992
     18 C         140.9193  139.6684  170.3416 C.3     1  UNL1        0.0902
     19 N         141.4433  140.2502  169.0623 N.3     1  UNL1       -0.2639
     20 C         140.7518  141.4232  168.4332 C.3     1  UNL1        0.0995
     21 C         139.9720  141.2423  167.1646 C.ar    1  UNL1       -0.0031
     22 C         139.1700  139.9932  166.9489 C.ar    1  UNL1       -0.0030
     23 C         138.3902  139.8122  165.6804 C.ar    1  UNL1       -0.0016
     24 C         138.4125  140.8804  164.6275 C.ar    1  UNL1        0.0119
     25 C         139.2145  142.1295  164.8432 C.ar    1  UNL1        0.1342
     26 C         139.9942  142.3105  166.1118 C.ar    1  UNL1        0.0337
     27 O         139.2367  143.1977  163.7904 O.3     1  UNL1       -0.4758
     28 C         138.4569  143.0168  162.5218 C.3     1  UNL1        0.2057
     29 C         137.6549  141.7677  162.3062 C.3     1  UNL1        0.0521
     30 C         137.6327  140.6995  163.3590 C.3     1  UNL1        0.0333
@<TRIPOS>BOND
     1    18    19    1
     2    19    17    1
     3    17     1    1
     4     1     2    2
     5     2     3    1
     6     3     4    2
     7     4     5    1
     8     5     6   ar
     9     6     7   ar
    10     7     8   ar
    11     8    11    1
    12    11    12   ar
    13    12    13   ar
    14    13    14   ar
    15    14    15   ar
    16    15    16   ar
    17     8     9   ar
    18     9    10   ar
    19    19    20    1
    20    20    21    1
    21    21    22   ar
    22    22    23   ar
    23    23    24   ar
    24    24    25   ar
    25    25    26   ar
    26    25    27    1
    27    27    28    1
    28    28    29    1
    29    29    30    1
    30    10     5   ar
    31    26    21   ar
    32    16    11   ar
    33    30    24    1
