@<TRIPOS>MOLECULE
*****
 29 31 0 0 0
SMALL
GASTEIGER

@<TRIPOS>ATOM
      1 S         143.4185  138.9050  164.2853 S.O2    1  UNL1        0.0768
      2 O         144.6962  139.6904  164.2631 O.2     1  UNL1       -0.1498
      3 O         142.1408  138.1195  164.3076 O.2     1  UNL1       -0.1498
      4 O         141.7487  140.8918  165.7902 O.2     1  UNL1       -0.2509
      5 C         142.6022  139.9105  166.5376 C.2     1  UNL1        0.3231
      6 N         142.6209  139.9227  168.0374 N.am    1  UNL1       -0.2671
      7 N         143.4371  138.9171  165.7851 N.am    1  UNL1       -0.1690
      8 H         143.1811  139.2786  168.5279 H       1  UNL1        0.1565
      9 H         143.9973  138.2731  166.2757 H       1  UNL1        0.1781
     10 C         141.7860  140.9161  168.7899 C.ar    1  UNL1        0.0516
     11 C         142.3183  142.2925  169.0585 C.ar    1  UNL1        0.0147
     12 C         141.4835  143.2858  169.8109 C.ar    1  UNL1        0.0013
     13 C         140.1162  142.9028  170.2947 C.ar    1  UNL1        0.0001
     14 C         139.5839  141.5265  170.0261 C.ar    1  UNL1        0.0013
     15 C         140.4188  140.5331  169.2736 C.ar    1  UNL1        0.0147
     16 C         143.3998  138.8928  162.7855 C.ar    1  UNL1        0.1255
     17 C         144.0140  140.0262  162.0186 C.ar    1  UNL1        0.0233
     18 C         143.9954  140.0140  160.5187 C.ar    1  UNL1        0.0383
     19 C         143.3625  138.8685  159.7858 C.ar    1  UNL1        0.1387
     20 C         142.7482  137.7351  160.5528 C.ar    1  UNL1        0.0383
     21 C         142.7669  137.7472  162.0526 C.ar    1  UNL1        0.0233
     22 O         143.3438  138.8563  158.2860 O.3     1  UNL1       -0.4740
     23 C         142.5209  137.8378  157.5544 C.3     1  UNL1        0.2226
     24 C         143.1454  137.0039  156.4752 C.3     1  UNL1        0.1200
     25 N         142.8562  135.5339  156.4013 N.3     1  UNL1       -0.2696
     26 C         143.5537  134.4578  157.1794 C.3     1  UNL1        0.0722
     27 C         142.9473  133.1407  156.7953 C.3     1  UNL1        0.0188
     28 C         141.8750  133.4027  155.7797 C.3     1  UNL1        0.0188
     29 C         141.8187  134.8818  155.5362 C.3     1  UNL1        0.0722
@<TRIPOS>BOND
     1     4     5    2
     2     5     6   am
     3     6    10    1
     4    10    11   ar
     5    11    12   ar
     6    12    13   ar
     7    13    14   ar
     8    14    15   ar
     9     5     7   am
    10     7     1    1
    11     1     2    2
    12     1     3    2
    13     1    16    1
    14    16    17   ar
    15    17    18   ar
    16    18    19   ar
    17    19    22    1
    18    22    23    1
    19    23    24    1
    20    24    25    1
    21    25    26    1
    22    26    27    1
    23    27    28    1
    24    28    29    1
    25    19    20   ar
    26    20    21   ar
    27    15    10   ar
    28    21    16   ar
    29    29    25    1
    30     6     8    1
    31     7     9    1
@<TRIPOS>MOLECULE
*****
 29 31 0 0 0
SMALL
GASTEIGER

@<TRIPOS>ATOM
      1 S         138.3631  138.9946  164.7013 S.O2    1  UNL1        0.0768
      2 O         138.8869  137.5893  164.6742 O.2     1  UNL1       -0.1498
      3 O         137.8394  140.3999  164.7284 O.2     1  UNL1       -0.1498
      4 O         140.2941  140.4718  166.4589 O.2     1  UNL1       -0.2509
      5 C         139.1956  139.6549  167.0722 C.2     1  UNL1        0.3231
      6 N         139.0627  139.5766  168.5642 N.am    1  UNL1       -0.2671
      7 N         138.2301  138.9163  166.1933 N.am    1  UNL1       -0.1690
      8 H         138.3417  139.0404  168.9666 H       1  UNL1        0.1565
      9 H         137.5092  138.3801  166.5957 H       1  UNL1        0.1781
     10 C         140.0281  140.3152  169.4430 C.ar    1  UNL1        0.0516
     11 C         139.6436  141.6399  170.0323 C.ar    1  UNL1        0.0147
     12 C         140.6091  142.3784  170.9111 C.ar    1  UNL1        0.0013
     13 C         141.9591  141.7923  171.2007 C.ar    1  UNL1        0.0001
     14 C         142.3436  140.4676  170.6114 C.ar    1  UNL1        0.0013
     15 C         141.3782  139.7290  169.7326 C.ar    1  UNL1        0.0147
     16 C         138.4961  139.0729  163.2093 C.ar    1  UNL1        0.1255
     17 C         137.8802  140.2174  162.4604 C.ar    1  UNL1        0.0233
     18 C         138.0132  140.2957  160.9683 C.ar    1  UNL1        0.0383
     19 C         138.7621  139.2296  160.2252 C.ar    1  UNL1        0.1387
     20 C         139.3780  138.0850  160.9740 C.ar    1  UNL1        0.0383
     21 C         139.2450  138.0067  162.4660 C.ar    1  UNL1        0.0233
     22 O         138.8951  139.3079  158.7332 O.3     1  UNL1       -0.4740
     23 C         140.0043  138.5740  158.0395 C.3     1  UNL1        0.2226
     24 C         141.3960  139.1337  158.0509 C.3     1  UNL1        0.1200
     25 N         142.2601  138.9704  159.2660 N.3     1  UNL1       -0.2696
     26 C         142.8962  137.6938  159.7305 C.3     1  UNL1        0.0722
     27 C         143.6691  137.9894  160.9816 C.3     1  UNL1        0.0188
     28 C         143.5106  139.4487  161.2904 C.3     1  UNL1        0.0188
     29 C         142.6398  140.0550  160.2301 C.3     1  UNL1        0.0722
@<TRIPOS>BOND
     1     4     5    2
     2     5     6   am
     3     6    10    1
     4    10    11   ar
     5    11    12   ar
     6    12    13   ar
     7    13    14   ar
     8    14    15   ar
     9     5     7   am
    10     7     1    1
    11     1     2    2
    12     1     3    2
    13     1    16    1
    14    16    17   ar
    15    17    18   ar
    16    18    19   ar
    17    19    22    1
    18    22    23    1
    19    23    24    1
    20    24    25    1
    21    25    26    1
    22    26    27    1
    23    27    28    1
    24    28    29    1
    25    19    20   ar
    26    20    21   ar
    27    15    10   ar
    28    21    16   ar
    29    29    25    1
    30     6     8    1
    31     7     9    1
@<TRIPOS>MOLECULE
*****
 29 31 0 0 0
SMALL
GASTEIGER

@<TRIPOS>ATOM
      1 S         141.5324  144.6694  162.0950 S.O2    1  UNL1        0.0768
      2 O         140.7594  145.9164  162.4076 O.2     1  UNL1       -0.1498
      3 O         142.3053  143.4225  161.7825 O.2     1  UNL1       -0.1498
      4 O         139.4889  144.4790  159.9069 O.2     1  UNL1       -0.2509
      5 C         140.8223  145.1098  159.6349 C.2     1  UNL1        0.3231
      6 N         141.1340  145.6454  158.2690 N.am    1  UNL1       -0.2671
      7 N         141.8441  145.2050  160.7291 N.am    1  UNL1       -0.1690
      8 H         142.0092  146.0595  158.0905 H       1  UNL1        0.1565
      9 H         142.7193  145.6191  160.5506 H       1  UNL1        0.1781
     10 C         140.1123  145.5502  157.1748 C.ar    1  UNL1        0.0516
     11 C         139.6134  144.2076  156.7293 C.ar    1  UNL1        0.0147
     12 C         138.5917  144.1124  155.6353 C.ar    1  UNL1        0.0013
     13 C         138.0689  145.3598  154.9867 C.ar    1  UNL1        0.0001
     14 C         138.5678  146.7024  155.4322 C.ar    1  UNL1        0.0013
     15 C         139.5895  146.7976  156.5263 C.ar    1  UNL1        0.0147
     16 C         141.2206  144.1338  163.4610 C.ar    1  UNL1        0.1255
     17 C         142.2389  143.3125  164.1949 C.ar    1  UNL1        0.0233
     18 C         141.9271  142.7769  165.5609 C.ar    1  UNL1        0.0383
     19 C         140.5971  143.0626  166.1930 C.ar    1  UNL1        0.1387
     20 C         139.5789  143.8839  165.4591 C.ar    1  UNL1        0.0383
     21 C         139.8906  144.4195  164.0931 C.ar    1  UNL1        0.0233
     22 O         140.2854  142.5270  167.5590 O.3     1  UNL1       -0.4740
     23 C         141.2543  141.6092  168.2438 C.3     1  UNL1        0.2226
     24 C         141.1987  140.1325  167.9861 C.3     1  UNL1        0.1200
     25 N         140.1084  139.5613  167.1287 N.3     1  UNL1       -0.2696
     26 C         140.2630  139.0605  165.7233 C.3     1  UNL1        0.0722
     27 C         138.9223  138.5803  165.2521 C.3     1  UNL1        0.0188
     28 C         137.9390  138.7844  166.3664 C.3     1  UNL1        0.0188
     29 C         138.6721  139.3907  167.5262 C.3     1  UNL1        0.0722
@<TRIPOS>BOND
     1     4     5    2
     2     5     6   am
     3     6    10    1
     4    10    11   ar
     5    11    12   ar
     6    12    13   ar
     7    13    14   ar
     8    14    15   ar
     9     5     7   am
    10     7     1    1
    11     1     2    2
    12     1     3    2
    13     1    16    1
    14    16    17   ar
    15    17    18   ar
    16    18    19   ar
    17    19    22    1
    18    22    23    1
    19    23    24    1
    20    24    25    1
    21    25    26    1
    22    26    27    1
    23    27    28    1
    24    28    29    1
    25    19    20   ar
    26    20    21   ar
    27    15    10   ar
    28    21    16   ar
    29    29    25    1
    30     6     8    1
    31     7     9    1
@<TRIPOS>MOLECULE
*****
 29 31 0 0 0
SMALL
GASTEIGER

@<TRIPOS>ATOM
      1 S         141.4443  144.3704  162.1436 S.O2    1  UNL1        0.0768
      2 O         142.2259  143.1885  161.6518 O.2     1  UNL1       -0.1498
      3 O         140.6626  145.5524  162.6354 O.2     1  UNL1       -0.1498
      4 O         139.6208  144.2872  159.7628 O.2     1  UNL1       -0.2509
      5 C         140.8905  145.0839  159.7075 C.2     1  UNL1        0.3231
      6 N         141.2485  145.8390  158.4619 N.am    1  UNL1       -0.2671
      7 N         141.8022  145.1255  160.8980 N.am    1  UNL1       -0.1690
      8 H         142.0818  146.3619  158.4256 H       1  UNL1        0.1565
      9 H         142.6356  145.6484  160.8617 H       1  UNL1        0.1781
     10 C         140.3367  145.7974  157.2715 C.ar    1  UNL1        0.0516
     11 C         139.6012  147.0337  156.8466 C.ar    1  UNL1        0.0147
     12 C         138.6895  146.9920  155.6562 C.ar    1  UNL1        0.0013
     13 C         138.5133  145.7141  154.8908 C.ar    1  UNL1        0.0001
     14 C         139.2488  144.4779  155.3157 C.ar    1  UNL1        0.0013
     15 C         140.1605  144.5195  156.5060 C.ar    1  UNL1        0.0147
     16 C         141.0863  143.6153  163.3892 C.ar    1  UNL1        0.1255
     17 C         141.7053  142.2757  163.6582 C.ar    1  UNL1        0.0233
     18 C         141.3472  141.5206  164.9039 C.ar    1  UNL1        0.0383
     19 C         140.3703  142.1052  165.8806 C.ar    1  UNL1        0.1387
     20 C         139.7513  143.4447  165.6116 C.ar    1  UNL1        0.0383
     21 C         140.1093  144.1998  164.3660 C.ar    1  UNL1        0.0233
     22 O         140.0123  141.3501  167.1262 O.3     1  UNL1       -0.4740
     23 C         139.5614  139.9224  167.0343 C.3     1  UNL1        0.2226
     24 C         138.3473  139.5698  166.2270 C.3     1  UNL1        0.1200
     25 N         138.4874  139.2230  164.7744 N.3     1  UNL1       -0.2696
     26 C         139.0472  137.9453  164.2229 C.3     1  UNL1        0.0722
     27 C         138.9980  138.0256  162.7259 C.3     1  UNL1        0.0188
     28 C         138.4079  139.3530  162.3521 C.3     1  UNL1        0.0188
     29 C         138.0923  140.0930  163.6181 C.3     1  UNL1        0.0722
@<TRIPOS>BOND
     1     4     5    2
     2     5     6   am
     3     6    10    1
     4    10    11   ar
     5    11    12   ar
     6    12    13   ar
     7    13    14   ar
     8    14    15   ar
     9     5     7   am
    10     7     1    1
    11     1     2    2
    12     1     3    2
    13     1    16    1
    14    16    17   ar
    15    17    18   ar
    16    18    19   ar
    17    19    22    1
    18    22    23    1
    19    23    24    1
    20    24    25    1
    21    25    26    1
    22    26    27    1
    23    27    28    1
    24    28    29    1
    25    19    20   ar
    26    20    21   ar
    27    15    10   ar
    28    21    16   ar
    29    29    25    1
    30     6     8    1
    31     7     9    1
@<TRIPOS>MOLECULE
*****
 29 31 0 0 0
SMALL
GASTEIGER

@<TRIPOS>ATOM
      1 S         141.5174  144.7086  162.1272 S.O2    1  UNL1        0.0768
      2 O         142.4042  143.5459  161.7930 O.2     1  UNL1       -0.1498
      3 O         140.6307  145.8713  162.4614 O.2     1  UNL1       -0.1498
      4 O         139.5203  144.3811  159.9126 O.2     1  UNL1       -0.2509
      5 C         140.7911  145.1403  159.6704 C.2     1  UNL1        0.3231
      6 N         141.0633  145.7358  158.3208 N.am    1  UNL1       -0.2671
      7 N         141.7897  145.3040  160.7777 N.am    1  UNL1       -0.1690
      8 H         141.8974  146.2341  158.1618 H       1  UNL1        0.1565
      9 H         142.6237  145.8023  160.6187 H       1  UNL1        0.1781
     10 C         140.0648  145.5720  157.2135 C.ar    1  UNL1        0.0516
     11 C         139.5960  144.2018  156.8228 C.ar    1  UNL1        0.0147
     12 C         138.5975  144.0381  155.7155 C.ar    1  UNL1        0.0013
     13 C         138.0677  145.2447  154.9989 C.ar    1  UNL1        0.0001
     14 C         138.5364  146.6149  155.3896 C.ar    1  UNL1        0.0013
     15 C         139.5350  146.7786  156.4969 C.ar    1  UNL1        0.0147
     16 C         141.2452  144.1131  163.4767 C.ar    1  UNL1        0.1255
     17 C         139.9042  144.3001  164.1224 C.ar    1  UNL1        0.0233
     18 C         139.6320  143.7046  165.4720 C.ar    1  UNL1        0.0383
     19 C         140.7008  142.9221  166.1758 C.ar    1  UNL1        0.1387
     20 C         142.0417  142.7351  165.5302 C.ar    1  UNL1        0.0383
     21 C         142.3140  143.3306  164.1807 C.ar    1  UNL1        0.0233
     22 O         140.4285  142.3266  167.5254 O.3     1  UNL1       -0.4740
     23 C         139.8011  140.9684  167.6331 C.3     1  UNL1        0.2226
     24 C         139.9096  139.9995  166.4931 C.3     1  UNL1        0.1200
     25 N         141.2439  139.4220  166.1242 N.3     1  UNL1       -0.2696
     26 C         141.6375  138.9049  164.7723 C.3     1  UNL1        0.0722
     27 C         143.0557  138.4234  164.8550 C.3     1  UNL1        0.0188
     28 C         143.5387  138.6429  166.2580 C.3     1  UNL1        0.0188
     29 C         142.4189  139.2601  167.0424 C.3     1  UNL1        0.0722
@<TRIPOS>BOND
     1     4     5    2
     2     5     6   am
     3     6    10    1
     4    10    11   ar
     5    11    12   ar
     6    12    13   ar
     7    13    14   ar
     8    14    15   ar
     9     5     7   am
    10     7     1    1
    11     1     2    2
    12     1     3    2
    13     1    16    1
    14    16    17   ar
    15    17    18   ar
    16    18    19   ar
    17    19    22    1
    18    22    23    1
    19    23    24    1
    20    24    25    1
    21    25    26    1
    22    26    27    1
    23    27    28    1
    24    28    29    1
    25    19    20   ar
    26    20    21   ar
    27    15    10   ar
    28    21    16   ar
    29    29    25    1
    30     6     8    1
    31     7     9    1
@<TRIPOS>MOLECULE
*****
 29 31 0 0 0
SMALL
GASTEIGER

@<TRIPOS>ATOM
      1 S         138.9703  139.1583  164.4142 S.O2    1  UNL1        0.0768
      2 O         137.9167  140.2129  164.5801 O.2     1  UNL1       -0.1498
      3 O         140.0239  138.1036  164.2483 O.2     1  UNL1       -0.1498
      4 O         140.7412  141.1112  165.8461 O.2     1  UNL1       -0.2509
      5 C         140.0101  140.0546  166.6200 C.2     1  UNL1        0.3231
      6 N         140.1644  139.9744  168.1099 N.am    1  UNL1       -0.2671
      7 N         139.1246  139.0781  165.9040 N.am    1  UNL1       -0.1690
      8 H         139.6845  139.2809  168.6178 H       1  UNL1        0.1565
      9 H         138.6448  138.3846  166.4120 H       1  UNL1        0.1781
     10 C         141.0499  140.9508  168.8258 C.ar    1  UNL1        0.0516
     11 C         142.4773  140.5944  169.1179 C.ar    1  UNL1        0.0147
     12 C         143.3627  141.5709  169.8338 C.ar    1  UNL1        0.0013
     13 C         142.8207  142.9037  170.2577 C.ar    1  UNL1        0.0001
     14 C         141.3932  143.2601  169.9657 C.ar    1  UNL1        0.0013
     15 C         140.5078  142.2837  169.2497 C.ar    1  UNL1        0.0147
     16 C         138.8160  139.2385  162.9243 C.ar    1  UNL1        0.1255
     17 C         139.6739  138.3885  162.0346 C.ar    1  UNL1        0.0233
     18 C         139.5195  138.4687  160.5447 C.ar    1  UNL1        0.0383
     19 C         138.5074  139.3989  159.9445 C.ar    1  UNL1        0.1387
     20 C         137.6495  140.2489  160.8343 C.ar    1  UNL1        0.0383
     21 C         137.8038  140.1687  162.3241 C.ar    1  UNL1        0.0233
     22 O         138.3531  139.4791  158.4547 O.3     1  UNL1       -0.4740
     23 C         138.5541  140.7875  157.7492 C.3     1  UNL1        0.2226
     24 C         137.4009  141.4507  157.0561 C.3     1  UNL1        0.1200
     25 N         136.4854  140.6438  156.1839 N.3     1  UNL1       -0.2696
     26 C         135.0114  140.4557  156.3887 C.3     1  UNL1        0.0722
     27 C         134.4982  139.5789  155.2851 C.3     1  UNL1        0.0188
     28 C         135.6551  139.2252  154.3982 C.3     1  UNL1        0.0188
     29 C         136.8832  139.8833  154.9537 C.3     1  UNL1        0.0722
@<TRIPOS>BOND
     1     4     5    2
     2     5     6   am
     3     6    10    1
     4    10    11   ar
     5    11    12   ar
     6    12    13   ar
     7    13    14   ar
     8    14    15   ar
     9     5     7   am
    10     7     1    1
    11     1     2    2
    12     1     3    2
    13     1    16    1
    14    16    17   ar
    15    17    18   ar
    16    18    19   ar
    17    19    22    1
    18    22    23    1
    19    23    24    1
    20    24    25    1
    21    25    26    1
    22    26    27    1
    23    27    28    1
    24    28    29    1
    25    19    20   ar
    26    20    21   ar
    27    15    10   ar
    28    21    16   ar
    29    29    25    1
    30     6     8    1
    31     7     9    1
@<TRIPOS>MOLECULE
*****
 29 31 0 0 0
SMALL
GASTEIGER

@<TRIPOS>ATOM
      1 S         139.2389  143.6006  163.7128 S.O2    1  UNL1        0.0768
      2 O         137.9755  142.9506  163.2317 O.2     1  UNL1       -0.1498
      3 O         140.5022  144.2505  164.1939 O.2     1  UNL1       -0.1498
      4 O         140.4968  142.9915  161.0582 O.2     1  UNL1       -0.2509
      5 C         139.7806  144.2927  161.2679 C.2     1  UNL1        0.3231
      6 N         139.6934  145.2894  160.1503 N.am    1  UNL1       -0.2671
      7 N         139.1517  144.5972  162.5952 N.am    1  UNL1       -0.1690
      8 H         139.2234  146.1434  160.2880 H       1  UNL1        0.1565
      9 H         138.6816  145.4513  162.7329 H       1  UNL1        0.1781
     10 C         140.3224  144.9849  158.8230 C.ar    1  UNL1        0.0516
     11 C         139.6881  143.9827  157.9047 C.ar    1  UNL1        0.0147
     12 C         140.3171  143.6783  156.5775 C.ar    1  UNL1        0.0013
     13 C         141.5803  144.3760  156.1685 C.ar    1  UNL1        0.0001
     14 C         142.2146  145.3782  157.0867 C.ar    1  UNL1        0.0013
     15 C         141.5857  145.6827  158.4140 C.ar    1  UNL1        0.0147
     16 C         139.3261  142.6039  164.8303 C.ar    1  UNL1        0.1255
     17 C         138.5761  141.3080  164.7398 C.ar    1  UNL1        0.0233
     18 C         138.6633  140.3113  165.8574 C.ar    1  UNL1        0.0383
     19 C         139.5005  140.6105  167.0655 C.ar    1  UNL1        0.1387
     20 C         140.2505  141.9064  167.1561 C.ar    1  UNL1        0.0383
     21 C         140.1633  142.9031  166.0385 C.ar    1  UNL1        0.0233
     22 O         139.5878  139.6138  168.1831 O.3     1  UNL1       -0.4740
     23 C         139.2842  140.0361  169.5900 C.3     1  UNL1        0.2226
     24 C         140.3883  140.1237  170.6016 C.3     1  UNL1        0.1200
     25 N         141.5251  141.0792  170.3901 N.3     1  UNL1       -0.2696
     26 C         141.5699  142.5096  170.8395 C.3     1  UNL1        0.0722
     27 C         142.8891  143.0865  170.4192 C.3     1  UNL1        0.0188
     28 C         143.6598  142.0127  169.7100 C.3     1  UNL1        0.0188
     29 C         142.8168  140.7722  169.6920 C.3     1  UNL1        0.0722
@<TRIPOS>BOND
     1     4     5    2
     2     5     6   am
     3     6    10    1
     4    10    11   ar
     5    11    12   ar
     6    12    13   ar
     7    13    14   ar
     8    14    15   ar
     9     5     7   am
    10     7     1    1
    11     1     2    2
    12     1     3    2
    13     1    16    1
    14    16    17   ar
    15    17    18   ar
    16    18    19   ar
    17    19    22    1
    18    22    23    1
    19    23    24    1
    20    24    25    1
    21    25    26    1
    22    26    27    1
    23    27    28    1
    24    28    29    1
    25    19    20   ar
    26    20    21   ar
    27    15    10   ar
    28    21    16   ar
    29    29    25    1
    30     6     8    1
    31     7     9    1
@<TRIPOS>MOLECULE
*****
 29 31 0 0 0
SMALL
GASTEIGER

@<TRIPOS>ATOM
      1 S         142.1619  140.7036  169.3371 S.O2    1  UNL1        0.0768
      2 O         141.0504  140.0454  170.0995 O.2     1  UNL1       -0.1498
      3 O         143.2734  141.3617  168.5746 O.2     1  UNL1       -0.1498
      4 O         143.0887  137.8990  169.8621 O.2     1  UNL1       -0.2509
      5 C         143.5677  139.0226  170.7329 C.2     1  UNL1        0.3231
      6 N         144.5101  138.7439  171.8661 N.am    1  UNL1       -0.2671
      7 N         143.1043  140.4249  170.4703 N.am    1  UNL1       -0.1690
      8 H         144.8244  139.4814  172.4375 H       1  UNL1        0.1565
      9 H         143.4186  141.1623  171.0417 H       1  UNL1        0.1781
     10 C         144.9735  137.3416  172.1286 C.ar    1  UNL1        0.0516
     11 C         144.3439  136.1941  171.3960 C.ar    1  UNL1        0.0147
     12 C         144.8073  134.7919  171.6586 C.ar    1  UNL1        0.0013
     13 C         145.9003  134.5372  172.6538 C.ar    1  UNL1        0.0001
     14 C         146.5299  135.6847  173.3864 C.ar    1  UNL1        0.0013
     15 C         146.0665  137.0869  173.1238 C.ar    1  UNL1        0.0147
     16 C         141.2195  140.9822  168.2039 C.ar    1  UNL1        0.1255
     17 C         140.1988  139.9569  167.8078 C.ar    1  UNL1        0.0233
     18 C         139.2564  140.2356  166.6745 C.ar    1  UNL1        0.0383
     19 C         139.3347  141.5396  165.9373 C.ar    1  UNL1        0.1387
     20 C         140.3554  142.5649  166.3334 C.ar    1  UNL1        0.0383
     21 C         141.2978  142.2863  167.4666 C.ar    1  UNL1        0.0233
     22 O         138.3924  141.8183  164.8041 O.3     1  UNL1       -0.4740
     23 C         138.2556  140.8317  163.6825 C.3     1  UNL1        0.2226
     24 C         139.3849  140.6348  162.7150 C.3     1  UNL1        0.1200
     25 N         140.2026  139.3782  162.7624 N.3     1  UNL1       -0.2696
     26 C         139.9848  138.2190  163.6891 C.3     1  UNL1        0.0722
     27 C         141.0293  137.1845  163.3909 C.3     1  UNL1        0.0188
     28 C         141.8927  137.7044  162.2799 C.3     1  UNL1        0.0188
     29 C         141.3818  139.0602  161.8915 C.3     1  UNL1        0.0722
@<TRIPOS>BOND
     1     4     5    2
     2     5     6   am
     3     6    10    1
     4    10    11   ar
     5    11    12   ar
     6    12    13   ar
     7    13    14   ar
     8    14    15   ar
     9     5     7   am
    10     7     1    1
    11     1     2    2
    12     1     3    2
    13     1    16    1
    14    16    17   ar
    15    17    18   ar
    16    18    19   ar
    17    19    22    1
    18    22    23    1
    19    23    24    1
    20    24    25    1
    21    25    26    1
    22    26    27    1
    23    27    28    1
    24    28    29    1
    25    19    20   ar
    26    20    21   ar
    27    15    10   ar
    28    21    16   ar
    29    29    25    1
    30     6     8    1
    31     7     9    1
@<TRIPOS>MOLECULE
*****
 29 31 0 0 0
SMALL
GASTEIGER

@<TRIPOS>ATOM
      1 S         142.1963  140.6725  169.2935 S.O2    1  UNL1        0.0768
      2 O         141.1256  139.8845  169.9882 O.2     1  UNL1       -0.1498
      3 O         143.2670  141.4605  168.5988 O.2     1  UNL1       -0.1498
      4 O         143.1194  137.8729  169.8507 O.2     1  UNL1       -0.2509
      5 C         143.5948  139.0049  170.7124 C.2     1  UNL1        0.3231
      6 N         144.5318  138.7371  171.8527 N.am    1  UNL1       -0.2671
      7 N         143.1332  140.4047  170.4338 N.am    1  UNL1       -0.1690
      8 H         144.8438  139.4801  172.4183 H       1  UNL1        0.1565
      9 H         143.4453  141.1477  170.9994 H       1  UNL1        0.1781
     10 C         144.9933  137.3373  172.1314 C.ar    1  UNL1        0.0516
     11 C         144.3369  136.1795  171.4397 C.ar    1  UNL1        0.0147
     12 C         144.7984  134.7798  171.7184 C.ar    1  UNL1        0.0013
     13 C         145.9165  134.5379  172.6887 C.ar    1  UNL1        0.0001
     14 C         146.5730  135.6957  173.3803 C.ar    1  UNL1        0.0013
     15 C         146.1114  137.0954  173.1017 C.ar    1  UNL1        0.0147
     16 C         141.2594  140.9403  168.1531 C.ar    1  UNL1        0.1255
     17 C         140.2148  139.9279  167.7871 C.ar    1  UNL1        0.0233
     18 C         139.2778  140.1957  166.6467 C.ar    1  UNL1        0.0383
     19 C         139.3854  141.4759  165.8724 C.ar    1  UNL1        0.1387
     20 C         140.4300  142.4882  166.2384 C.ar    1  UNL1        0.0383
     21 C         141.3670  142.2204  167.3787 C.ar    1  UNL1        0.0233
     22 O         138.4485  141.7436  164.7321 O.3     1  UNL1       -0.4740
     23 C         137.8579  143.1106  164.5518 C.3     1  UNL1        0.2226
     24 C         137.9829  143.8137  163.2326 C.3     1  UNL1        0.1200
     25 N         139.3318  144.2436  162.7368 N.3     1  UNL1       -0.2696
     26 C         139.8244  144.1444  161.3235 C.3     1  UNL1        0.0722
     27 C         141.2219  144.6877  161.2805 C.3     1  UNL1        0.0188
     28 C         141.5930  145.1226  162.6672 C.3     1  UNL1        0.0188
     29 C         140.4249  144.8481  163.5673 C.3     1  UNL1        0.0722
@<TRIPOS>BOND
     1     4     5    2
     2     5     6   am
     3     6    10    1
     4    10    11   ar
     5    11    12   ar
     6    12    13   ar
     7    13    14   ar
     8    14    15   ar
     9     5     7   am
    10     7     1    1
    11     1     2    2
    12     1     3    2
    13     1    16    1
    14    16    17   ar
    15    17    18   ar
    16    18    19   ar
    17    19    22    1
    18    22    23    1
    19    23    24    1
    20    24    25    1
    21    25    26    1
    22    26    27    1
    23    27    28    1
    24    28    29    1
    25    19    20   ar
    26    20    21   ar
    27    15    10   ar
    28    21    16   ar
    29    29    25    1
    30     6     8    1
    31     7     9    1
