@<TRIPOS>MOLECULE
*****
 38 41 0 0 0
SMALL
GASTEIGER

@<TRIPOS>ATOM
      1 C         139.6413  139.8417  167.7811 C.ar    1  UNL1        0.1383
      2 N         138.4944  139.6069  168.7189 N.ar    1  UNL1       -0.2088
      3 C         138.5043  140.2254  170.0854 C.ar    1  UNL1        0.2000
      4 N         139.6611  141.0786  170.5141 N.ar    1  UNL1       -0.2238
      5 C         140.8080  141.3134  169.5764 C.ar    1  UNL1        0.0887
      6 C         141.9648  142.1666  170.0051 C.ar    1  UNL1        0.0195
      7 C         143.1117  142.4014  169.0674 C.ar    1  UNL1        0.0047
      8 C         143.1019  141.7829  167.7008 C.ar    1  UNL1        0.0371
      9 C         141.9451  140.9297  167.2720 C.ar    1  UNL1        0.1432
     10 C         140.7981  140.6949  168.2099 C.ar    1  UNL1        0.0833
     11 N         139.6315  139.2232  166.4145 N.pl3   1  UNL1       -0.2978
     12 H         139.9709  138.3081  166.2859 H       1  UNL1        0.1536
     13 C         138.0505  141.5510  162.9028 C.ar    1  UNL1        0.1414
     14 C         138.4188  140.1060  162.7403 C.ar    1  UNL1        0.0384
     15 C         138.9458  139.3300  163.9108 C.ar    1  UNL1        0.0178
     16 C         139.1045  139.9992  165.2440 C.ar    1  UNL1        0.0492
     17 C         138.7362  141.4441  165.4065 C.ar    1  UNL1        0.0134
     18 C         138.2092  142.2200  164.2359 C.ar    1  UNL1        0.0139
     19 C         137.8409  143.6650  164.3985 C.3     1  UNL1        0.0343
     20 O         137.5235  142.3269  161.7323 O.3     1  UNL1       -0.4522
     21 C         141.3234  144.5955  157.6809 C.3     1  UNL1        0.0521
     22 C         140.3734  144.0284  158.6938 C.ar    1  UNL1        0.0596
     23 C         140.4694  144.4493  160.1303 C.ar    1  UNL1        0.0179
     24 C         139.5195  143.8822  161.1431 C.ar    1  UNL1        0.0403
     25 C         138.4734  142.8940  160.7194 C.ar    1  UNL1        0.1643
     26 C         138.3774  142.4731  159.2829 C.ar    1  UNL1        0.1358
     27 N         139.3275  143.0403  158.2701 N.ar    1  UNL1       -0.2449
     28 O         141.9352  140.3112  165.9055 O.3     1  UNL1       -0.4698
     29 C         142.7593  139.0886  165.6296 C.3     1  UNL1        0.2413
     30 C         143.4424  138.3743  166.7579 C.3     1  UNL1        0.0574
     31 C         142.9001  138.5803  164.2254 C.2     1  UNL1        0.2660
     32 O         141.9364  137.5594  163.6971 O.2     1  UNL1       -0.2710
     33 N         144.0047  139.0928  163.3495 N.am    1  UNL1       -0.2723
     34 C         144.1455  138.5845  161.9453 C.3     1  UNL1        0.1150
     35 C         144.9683  140.1136  163.8778 C.3     1  UNL1        0.1252
     36 C         144.9229  141.5232  163.3666 C.3     1  UNL1        0.1586
     37 O         145.9613  142.0029  162.3962 O.3     1  UNL1       -0.3802
     38 H         146.8284  142.0156  162.8307 H       1  UNL1        0.2105
@<TRIPOS>BOND
     1    21    22    1
     2    22    23   ar
     3    23    24   ar
     4    24    25   ar
     5    25    20    1
     6    20    13    1
     7    13    14   ar
     8    14    15   ar
     9    15    16   ar
    10    16    11    1
    11    11     1    1
    12     1     2   ar
    13     2     3   ar
    14     3     4   ar
    15     4     5   ar
    16     5     6   ar
    17     6     7   ar
    18     7     8   ar
    19     8     9   ar
    20     9    28    1
    21    28    29    1
    22    29    30    1
    23    29    31    1
    24    31    32    2
    25    31    33   am
    26    33    34    1
    27    33    35    1
    28    35    36    1
    29    36    37    1
    30     9    10   ar
    31    16    17   ar
    32    17    18   ar
    33    18    19    1
    34    25    26   ar
    35    26    27   ar
    36    27    22   ar
    37    18    13   ar
    38    10     1   ar
    39    10     5   ar
    40    11    12    1
    41    37    38    1
@<TRIPOS>MOLECULE
*****
 38 41 0 0 0
SMALL
GASTEIGER

@<TRIPOS>ATOM
      1 C         139.8661  139.9459  167.8879 C.ar    1  UNL1        0.1383
      2 N         138.6082  139.2869  168.3709 N.ar    1  UNL1       -0.2088
      3 C         137.9781  139.7267  169.6591 C.ar    1  UNL1        0.2000
      4 N         138.6059  140.8256  170.4643 N.ar    1  UNL1       -0.2238
      5 C         139.8638  141.4846  169.9813 C.ar    1  UNL1        0.0887
      6 C         140.4916  142.5835  170.7865 C.ar    1  UNL1        0.0195
      7 C         141.7495  143.2426  170.3035 C.ar    1  UNL1        0.0047
      8 C         142.3796  142.8028  169.0152 C.ar    1  UNL1        0.0371
      9 C         141.7518  141.7039  168.2100 C.ar    1  UNL1        0.1432
     10 C         140.4939  141.0448  168.6931 C.ar    1  UNL1        0.0833
     11 N         140.4962  139.5061  166.5996 N.pl3   1  UNL1       -0.2978
     12 H         141.4077  139.1340  166.5993 H       1  UNL1        0.1536
     13 C         138.2204  139.8876  162.7363 C.ar    1  UNL1        0.1414
     14 C         137.8813  140.7749  163.8973 C.ar    1  UNL1        0.0384
     15 C         138.6399  140.6477  165.1851 C.ar    1  UNL1        0.0178
     16 C         139.7376  139.6333  165.3119 C.ar    1  UNL1        0.0492
     17 C         140.0767  138.7461  164.1509 C.ar    1  UNL1        0.0134
     18 C         139.3181  138.8732  162.8632 C.ar    1  UNL1        0.0139
     19 C         139.6572  137.9859  161.7022 C.3     1  UNL1        0.0343
     20 O         137.4618  140.0147  161.4486 O.3     1  UNL1       -0.4522
     21 C         139.4459  143.6993  157.1490 C.3     1  UNL1        0.0521
     22 C         138.9499  142.7782  158.2239 C.ar    1  UNL1        0.0596
     23 C         138.5505  141.3733  157.8822 C.ar    1  UNL1        0.0179
     24 C         138.0545  140.4521  158.9571 C.ar    1  UNL1        0.0403
     25 C         137.9578  140.9359  160.3737 C.ar    1  UNL1        0.1643
     26 C         138.3571  142.3408  160.7154 C.ar    1  UNL1        0.1358
     27 N         138.8532  143.2620  159.6404 N.ar    1  UNL1       -0.2449
     28 O         142.3819  141.2641  166.9218 O.3     1  UNL1       -0.4698
     29 C         142.5569  142.2439  165.7995 C.3     1  UNL1        0.2413
     30 C         141.3788  143.0215  165.2923 C.3     1  UNL1        0.0574
     31 C         143.9100  142.4460  165.1845 C.2     1  UNL1        0.2660
     32 O         144.6724  143.7106  165.4483 O.2     1  UNL1       -0.2710
     33 N         144.5007  141.3835  164.3057 N.am    1  UNL1       -0.2723
     34 C         145.8538  141.5856  163.6907 C.3     1  UNL1        0.1150
     35 C         143.7382  140.1190  164.0420 C.3     1  UNL1        0.1252
     36 C         144.0219  138.8892  164.8528 C.3     1  UNL1        0.1586
     37 O         143.0927  138.4905  165.9607 O.3     1  UNL1       -0.3802
     38 H         143.1220  139.1585  166.6634 H       1  UNL1        0.2105
@<TRIPOS>BOND
     1    21    22    1
     2    22    23   ar
     3    23    24   ar
     4    24    25   ar
     5    25    20    1
     6    20    13    1
     7    13    14   ar
     8    14    15   ar
     9    15    16   ar
    10    16    11    1
    11    11     1    1
    12     1     2   ar
    13     2     3   ar
    14     3     4   ar
    15     4     5   ar
    16     5     6   ar
    17     6     7   ar
    18     7     8   ar
    19     8     9   ar
    20     9    28    1
    21    28    29    1
    22    29    30    1
    23    29    31    1
    24    31    32    2
    25    31    33   am
    26    33    34    1
    27    33    35    1
    28    35    36    1
    29    36    37    1
    30     9    10   ar
    31    16    17   ar
    32    17    18   ar
    33    18    19    1
    34    25    26   ar
    35    26    27   ar
    36    27    22   ar
    37    18    13   ar
    38    10     1   ar
    39    10     5   ar
    40    11    12    1
    41    37    38    1
@<TRIPOS>MOLECULE
*****
 38 41 0 0 0
SMALL
GASTEIGER

@<TRIPOS>ATOM
      1 C         140.1206  140.1064  167.8784 C.ar    1  UNL1        0.1383
      2 N         138.8490  139.5432  168.4403 N.ar    1  UNL1       -0.2088
      3 C         138.4091  139.9198  169.8240 C.ar    1  UNL1        0.2000
      4 N         139.2407  140.8595  170.6457 N.ar    1  UNL1       -0.2238
      5 C         140.5123  141.4227  170.0838 C.ar    1  UNL1        0.0887
      6 C         141.3439  142.3624  170.9056 C.ar    1  UNL1        0.0195
      7 C         142.6155  142.9256  170.3437 C.ar    1  UNL1        0.0047
      8 C         143.0556  142.5491  168.9599 C.ar    1  UNL1        0.0371
      9 C         142.2239  141.6094  168.1382 C.ar    1  UNL1        0.1432
     10 C         140.9523  141.0462  168.7002 C.ar    1  UNL1        0.0833
     11 N         140.5607  139.7299  166.4947 N.pl3   1  UNL1       -0.2978
     12 H         141.3197  139.1155  166.3696 H       1  UNL1        0.1536
     13 C         138.4111  141.4085  162.9153 C.ar    1  UNL1        0.1414
     14 C         139.2433  140.1681  162.7768 C.ar    1  UNL1        0.0384
     15 C         139.9598  139.6086  163.9699 C.ar    1  UNL1        0.0178
     16 C         139.8442  140.2894  165.3015 C.ar    1  UNL1        0.0492
     17 C         139.0121  141.5297  165.4400 C.ar    1  UNL1        0.0134
     18 C         138.2956  142.0892  164.2469 C.ar    1  UNL1        0.0139
     19 C         137.4634  143.3296  164.3854 C.3     1  UNL1        0.0343
     20 O         137.6946  141.9680  161.7222 O.3     1  UNL1       -0.4522
     21 C         140.7827  144.7815  157.4155 C.3     1  UNL1        0.0521
     22 C         140.0107  144.0781  158.4921 C.ar    1  UNL1        0.0596
     23 C         140.2237  144.4466  159.9305 C.ar    1  UNL1        0.0179
     24 C         139.4517  143.7433  161.0072 C.ar    1  UNL1        0.0403
     25 C         138.4666  142.6714  160.6455 C.ar    1  UNL1        0.1643
     26 C         138.2536  142.3028  159.2072 C.ar    1  UNL1        0.1358
     27 N         139.0257  143.0063  158.1305 N.ar    1  UNL1       -0.2449
     28 O         142.6639  141.2328  166.7545 O.3     1  UNL1       -0.4698
     29 C         142.8816  142.2978  165.7208 C.3     1  UNL1        0.2413
     30 C         141.7664  143.2349  165.3630 C.3     1  UNL1        0.0574
     31 C         144.2147  142.4257  165.0450 C.2     1  UNL1        0.2660
     32 O         145.1760  143.4925  165.4785 O.2     1  UNL1       -0.2710
     33 N         144.5863  141.4869  163.9358 N.am    1  UNL1       -0.2723
     34 C         145.9193  141.6147  163.2600 C.3     1  UNL1        0.1150
     35 C         143.6249  140.4202  163.5024 C.3     1  UNL1        0.1252
     36 C         143.7561  139.0273  164.0437 C.3     1  UNL1        0.1586
     37 O         143.1414  138.6756  165.3659 O.3     1  UNL1       -0.3802
     38 H         143.5897  139.1669  166.0719 H       1  UNL1        0.2105
@<TRIPOS>BOND
     1    21    22    1
     2    22    23   ar
     3    23    24   ar
     4    24    25   ar
     5    25    20    1
     6    20    13    1
     7    13    14   ar
     8    14    15   ar
     9    15    16   ar
    10    16    11    1
    11    11     1    1
    12     1     2   ar
    13     2     3   ar
    14     3     4   ar
    15     4     5   ar
    16     5     6   ar
    17     6     7   ar
    18     7     8   ar
    19     8     9   ar
    20     9    28    1
    21    28    29    1
    22    29    30    1
    23    29    31    1
    24    31    32    2
    25    31    33   am
    26    33    34    1
    27    33    35    1
    28    35    36    1
    29    36    37    1
    30     9    10   ar
    31    16    17   ar
    32    17    18   ar
    33    18    19    1
    34    25    26   ar
    35    26    27   ar
    36    27    22   ar
    37    18    13   ar
    38    10     1   ar
    39    10     5   ar
    40    11    12    1
    41    37    38    1
@<TRIPOS>MOLECULE
*****
 38 41 0 0 0
SMALL
GASTEIGER

@<TRIPOS>ATOM
      1 C         139.6261  139.8566  167.9056 C.ar    1  UNL1        0.1383
      2 N         138.4693  139.6466  168.8370 N.ar    1  UNL1       -0.2088
      3 C         138.4697  140.2925  170.1908 C.ar    1  UNL1        0.2000
      4 N         139.6269  141.1484  170.6131 N.ar    1  UNL1       -0.2238
      5 C         140.7837  141.3583  169.6817 C.ar    1  UNL1        0.0887
      6 C         141.9409  142.2142  170.1040 C.ar    1  UNL1        0.0195
      7 C         143.0977  142.4241  169.1725 C.ar    1  UNL1        0.0047
      8 C         143.0974  141.7782  167.8187 C.ar    1  UNL1        0.0371
      9 C         141.9402  140.9224  167.3964 C.ar    1  UNL1        0.1432
     10 C         140.7833  140.7124  168.3279 C.ar    1  UNL1        0.0833
     11 N         139.6257  139.2107  166.5517 N.pl3   1  UNL1       -0.2978
     12 H         139.9789  138.2983  166.4415 H       1  UNL1        0.1536
     13 C         138.0103  141.4432  162.9942 C.ar    1  UNL1        0.1414
     14 C         138.3722  139.9929  162.8684 C.ar    1  UNL1        0.0384
     15 C         138.9107  139.2487  164.0542 C.ar    1  UNL1        0.0178
     16 C         139.0872  139.9548  165.3659 C.ar    1  UNL1        0.0492
     17 C         138.7253  141.4050  165.4916 C.ar    1  UNL1        0.0134
     18 C         138.1868  142.1492  164.3058 C.ar    1  UNL1        0.0139
     19 C         137.8248  143.5995  164.4316 C.3     1  UNL1        0.0343
     20 O         137.4718  142.1874  161.8083 O.3     1  UNL1       -0.4522
     21 C         141.2421  144.5280  157.7703 C.3     1  UNL1        0.0521
     22 C         140.2995  143.9428  158.7798 C.ar    1  UNL1        0.0596
     23 C         140.3810  144.3672  160.2162 C.ar    1  UNL1        0.0179
     24 C         139.4384  143.7821  161.2257 C.ar    1  UNL1        0.0403
     25 C         138.4143  142.7725  160.7988 C.ar    1  UNL1        0.1643
     26 C         138.3329  142.3481  159.3624 C.ar    1  UNL1        0.1358
     27 N         139.2756  142.9333  158.3529 N.ar    1  UNL1       -0.2449
     28 O         141.9397  140.2765  166.0426 O.3     1  UNL1       -0.4698
     29 C         143.1852  139.6207  165.5241 C.3     1  UNL1        0.2413
     30 C         143.7066  138.3766  166.1802 C.3     1  UNL1        0.0574
     31 C         143.9093  140.2089  164.3495 C.2     1  UNL1        0.2660
     32 O         144.7561  141.4342  164.5274 O.2     1  UNL1       -0.2710
     33 N         143.7864  139.5720  162.9970 N.am    1  UNL1       -0.2723
     34 C         144.5105  140.1603  161.8224 C.3     1  UNL1        0.1150
     35 C         142.9396  138.3468  162.8192 C.3     1  UNL1        0.1252
     36 C         141.8301  138.3420  161.8097 C.3     1  UNL1        0.1586
     37 O         140.6953  137.3708  161.9471 O.3     1  UNL1       -0.3802
     38 H         141.0270  136.4670  161.8281 H       1  UNL1        0.2105
@<TRIPOS>BOND
     1    21    22    1
     2    22    23   ar
     3    23    24   ar
     4    24    25   ar
     5    25    20    1
     6    20    13    1
     7    13    14   ar
     8    14    15   ar
     9    15    16   ar
    10    16    11    1
    11    11     1    1
    12     1     2   ar
    13     2     3   ar
    14     3     4   ar
    15     4     5   ar
    16     5     6   ar
    17     6     7   ar
    18     7     8   ar
    19     8     9   ar
    20     9    28    1
    21    28    29    1
    22    29    30    1
    23    29    31    1
    24    31    32    2
    25    31    33   am
    26    33    34    1
    27    33    35    1
    28    35    36    1
    29    36    37    1
    30     9    10   ar
    31    16    17   ar
    32    17    18   ar
    33    18    19    1
    34    25    26   ar
    35    26    27   ar
    36    27    22   ar
    37    18    13   ar
    38    10     1   ar
    39    10     5   ar
    40    11    12    1
    41    37    38    1
@<TRIPOS>MOLECULE
*****
 38 41 0 0 0
SMALL
GASTEIGER

@<TRIPOS>ATOM
      1 C         140.7053  140.7912  167.8931 C.ar    1  UNL1        0.1383
      2 N         140.5613  141.4279  169.2436 N.ar    1  UNL1       -0.2088
      3 C         139.4010  141.0670  170.1230 C.ar    1  UNL1        0.2000
      4 N         138.3847  140.0694  169.6519 N.ar    1  UNL1       -0.2238
      5 C         138.5287  139.4327  168.3014 C.ar    1  UNL1        0.0887
      6 C         137.5124  138.4351  167.8304 C.ar    1  UNL1        0.0195
      7 C         137.6564  137.7984  166.4799 C.ar    1  UNL1        0.0047
      8 C         138.8168  138.1593  165.6004 C.ar    1  UNL1        0.0371
      9 C         139.8331  139.1569  166.0715 C.ar    1  UNL1        0.1432
     10 C         139.6890  139.7936  167.4220 C.ar    1  UNL1        0.0833
     11 N         141.8657  141.1521  167.0136 N.pl3   1  UNL1       -0.2978
     12 H         142.7149  140.6603  167.0926 H       1  UNL1        0.1536
     13 C         141.4651  144.4829  164.0144 C.ar    1  UNL1        0.1414
     14 C         140.2499  143.9604  164.7218 C.ar    1  UNL1        0.0384
     15 C         140.3834  142.8502  165.7215 C.ar    1  UNL1        0.0178
     16 C         141.7322  142.2624  166.0139 C.ar    1  UNL1        0.0492
     17 C         142.9473  142.7848  165.3065 C.ar    1  UNL1        0.0134
     18 C         142.8138  143.8950  164.3067 C.ar    1  UNL1        0.0139
     19 C         144.0290  144.4175  163.5993 C.3     1  UNL1        0.0343
     20 O         141.3316  145.5931  163.0146 O.3     1  UNL1       -0.4522
     21 C         140.1176  144.3324  157.2756 C.3     1  UNL1        0.0521
     22 C         140.4211  144.6476  158.7103 C.ar    1  UNL1        0.0596
     23 C         141.4574  143.8540  159.4495 C.ar    1  UNL1        0.0179
     24 C         141.7609  144.1692  160.8843 C.ar    1  UNL1        0.0403
     25 C         141.0281  145.2779  161.5799 C.ar    1  UNL1        0.1643
     26 C         139.9918  146.0715  160.8406 C.ar    1  UNL1        0.1358
     27 N         139.6884  145.7563  159.4058 N.ar    1  UNL1       -0.2449
     28 O         140.9934  139.5178  165.1921 O.3     1  UNL1       -0.4698
     29 C         140.8414  139.4881  163.7001 C.3     1  UNL1        0.2413
     30 C         139.8434  140.3851  163.0298 C.3     1  UNL1        0.0574
     31 C         141.6875  138.5613  162.8783 C.2     1  UNL1        0.2660
     32 O         141.2204  137.1620  162.6064 O.2     1  UNL1       -0.2710
     33 N         143.0007  139.0337  162.3286 N.am    1  UNL1       -0.2723
     34 C         143.8468  138.1069  161.5069 C.3     1  UNL1        0.1150
     35 C         143.4679  140.4329  162.6006 C.3     1  UNL1        0.1252
     36 C         144.9205  140.7795  162.4592 C.3     1  UNL1        0.1586
     37 O         145.6944  141.2666  163.6482 O.3     1  UNL1       -0.3802
     38 H         145.3484  142.1284  163.9283 H       1  UNL1        0.2105
@<TRIPOS>BOND
     1    21    22    1
     2    22    23   ar
     3    23    24   ar
     4    24    25   ar
     5    25    20    1
     6    20    13    1
     7    13    14   ar
     8    14    15   ar
     9    15    16   ar
    10    16    11    1
    11    11     1    1
    12     1     2   ar
    13     2     3   ar
    14     3     4   ar
    15     4     5   ar
    16     5     6   ar
    17     6     7   ar
    18     7     8   ar
    19     8     9   ar
    20     9    28    1
    21    28    29    1
    22    29    30    1
    23    29    31    1
    24    31    32    2
    25    31    33   am
    26    33    34    1
    27    33    35    1
    28    35    36    1
    29    36    37    1
    30     9    10   ar
    31    16    17   ar
    32    17    18   ar
    33    18    19    1
    34    25    26   ar
    35    26    27   ar
    36    27    22   ar
    37    18    13   ar
    38    10     1   ar
    39    10     5   ar
    40    11    12    1
    41    37    38    1
@<TRIPOS>MOLECULE
*****
 38 41 0 0 0
SMALL
GASTEIGER

@<TRIPOS>ATOM
      1 C         140.0924  139.9736  167.9971 C.ar    1  UNL1        0.1383
      2 N         138.7877  139.5461  168.6012 N.ar    1  UNL1       -0.2088
      3 C         138.3581  140.1000  169.9273 C.ar    1  UNL1        0.2000
      4 N         139.2332  141.0813  170.6493 N.ar    1  UNL1       -0.2238
      5 C         140.5379  141.5087  170.0452 C.ar    1  UNL1        0.0887
      6 C         141.4130  142.4900  170.7672 C.ar    1  UNL1        0.0195
      7 C         142.7176  142.9175  170.1630 C.ar    1  UNL1        0.0047
      8 C         143.1473  142.3636  168.8368 C.ar    1  UNL1        0.0371
      9 C         142.2722  141.3823  168.1149 C.ar    1  UNL1        0.1432
     10 C         140.9675  140.9549  168.7191 C.ar    1  UNL1        0.0833
     11 N         140.5220  139.4197  166.6709 N.pl3   1  UNL1       -0.2978
     12 H         141.3427  138.8798  166.6054 H       1  UNL1        0.1536
     13 C         138.0599  140.2261  162.9915 C.ar    1  UNL1        0.1414
     14 C         138.0714  141.2164  164.1182 C.ar    1  UNL1        0.0384
     15 C         138.8921  140.9476  165.3446 C.ar    1  UNL1        0.0178
     16 C         139.7013  139.6885  165.4444 C.ar    1  UNL1        0.0492
     17 C         139.6898  138.6983  164.3178 C.ar    1  UNL1        0.0134
     18 C         138.8691  138.9671  163.0914 C.ar    1  UNL1        0.0139
     19 C         138.8576  137.9767  161.9648 C.3     1  UNL1        0.0343
     20 O         137.2391  140.4949  161.7651 O.3     1  UNL1       -0.4522
     21 C         139.8134  142.8707  156.8940 C.3     1  UNL1        0.0521
     22 C         139.1699  142.2767  158.1117 C.ar    1  UNL1        0.0596
     23 C         139.1068  143.0647  159.3865 C.ar    1  UNL1        0.0179
     24 C         138.4633  142.4708  160.6043 C.ar    1  UNL1        0.0403
     25 C         137.8827  141.0888  160.5473 C.ar    1  UNL1        0.1643
     26 C         137.9458  140.3008  159.2725 C.ar    1  UNL1        0.1358
     27 N         138.5894  140.8948  158.0547 N.ar    1  UNL1       -0.2449
     28 O         142.7018  140.8284  166.7887 O.3     1  UNL1       -0.4698
     29 C         142.5524  141.6558  165.5464 C.3     1  UNL1        0.2413
     30 C         141.6380  142.8448  165.5426 C.3     1  UNL1        0.0574
     31 C         143.3176  141.2942  164.3080 C.2     1  UNL1        0.2660
     32 O         143.0539  139.9886  163.6179 O.2     1  UNL1       -0.2710
     33 N         144.3464  142.2379  163.7596 N.am    1  UNL1       -0.2723
     34 C         145.1116  141.8763  162.5212 C.3     1  UNL1        0.1150
     35 C         144.6101  143.5434  164.4497 C.3     1  UNL1        0.1252
     36 C         143.8888  144.7831  164.0104 C.3     1  UNL1        0.1586
     37 O         144.0475  145.2852  162.6059 O.3     1  UNL1       -0.3802
     38 H         144.9635  145.5725  162.4668 H       1  UNL1        0.2105
@<TRIPOS>BOND
     1    21    22    1
     2    22    23   ar
     3    23    24   ar
     4    24    25   ar
     5    25    20    1
     6    20    13    1
     7    13    14   ar
     8    14    15   ar
     9    15    16   ar
    10    16    11    1
    11    11     1    1
    12     1     2   ar
    13     2     3   ar
    14     3     4   ar
    15     4     5   ar
    16     5     6   ar
    17     6     7   ar
    18     7     8   ar
    19     8     9   ar
    20     9    28    1
    21    28    29    1
    22    29    30    1
    23    29    31    1
    24    31    32    2
    25    31    33   am
    26    33    34    1
    27    33    35    1
    28    35    36    1
    29    36    37    1
    30     9    10   ar
    31    16    17   ar
    32    17    18   ar
    33    18    19    1
    34    25    26   ar
    35    26    27   ar
    36    27    22   ar
    37    18    13   ar
    38    10     1   ar
    39    10     5   ar
    40    11    12    1
    41    37    38    1
@<TRIPOS>MOLECULE
*****
 38 41 0 0 0
SMALL
GASTEIGER

@<TRIPOS>ATOM
      1 C         139.6661  141.3700  160.8209 C.ar    1  UNL1        0.1383
      2 N         140.2716  142.1285  159.6773 N.ar    1  UNL1       -0.2088
      3 C         140.1888  143.6258  159.6429 C.ar    1  UNL1        0.2000
      4 N         139.5005  144.3646  160.7521 N.ar    1  UNL1       -0.2238
      5 C         138.8950  143.6061  161.8958 C.ar    1  UNL1        0.0887
      6 C         138.2067  144.3449  163.0050 C.ar    1  UNL1        0.0195
      7 C         137.6012  143.5864  164.1487 C.ar    1  UNL1        0.0047
      8 C         137.6839  142.0890  164.1831 C.ar    1  UNL1        0.0371
      9 C         138.3722  141.3502  163.0739 C.ar    1  UNL1        0.1432
     10 C         138.9778  142.1088  161.9302 C.ar    1  UNL1        0.0833
     11 N         139.7488  139.8726  160.8554 N.pl3   1  UNL1       -0.2978
     12 H         139.3699  139.3761  161.6164 H       1  UNL1        0.1536
     13 C         141.7291  137.6505  157.4804 C.ar    1  UNL1        0.1414
     14 C         142.5349  138.0798  158.6706 C.ar    1  UNL1        0.0384
     15 C         141.8748  138.8205  159.7956 C.ar    1  UNL1        0.0178
     16 C         140.4089  139.1319  159.7304 C.ar    1  UNL1        0.0492
     17 C         139.6032  138.7026  158.5403 C.ar    1  UNL1        0.0134
     18 C         140.2633  137.9619  157.4153 C.ar    1  UNL1        0.0139
     19 C         139.4574  137.5326  156.2251 C.3     1  UNL1        0.0343
     20 O         142.3892  136.9097  156.3554 O.3     1  UNL1       -0.4522
     21 C         142.7351  130.9215  156.5011 C.3     1  UNL1        0.0521
     22 C         142.6486  132.4186  156.4646 C.ar    1  UNL1        0.0596
     23 C         141.7057  133.0924  155.5124 C.ar    1  UNL1        0.0179
     24 C         141.6192  134.5894  155.4760 C.ar    1  UNL1        0.0403
     25 C         142.4757  135.4127  156.3918 C.ar    1  UNL1        0.1643
     26 C         143.4186  134.7389  157.3441 C.ar    1  UNL1        0.1358
     27 N         143.5051  133.2418  157.3805 N.ar    1  UNL1       -0.2449
     28 O         138.4550  139.8529  163.1083 O.3     1  UNL1       -0.4698
     29 C         139.3603  139.1743  164.0931 C.3     1  UNL1        0.2413
     30 C         138.8751  137.9782  164.8573 C.3     1  UNL1        0.0574
     31 C         140.7509  139.6916  164.3137 C.2     1  UNL1        0.2660
     32 O         141.8305  139.3892  163.3171 O.2     1  UNL1       -0.2710
     33 N         141.0619  140.5114  165.5307 N.am    1  UNL1       -0.2723
     34 C         142.4524  141.0288  165.7513 C.3     1  UNL1        0.1150
     35 C         139.9823  140.8139  166.5272 C.3     1  UNL1        0.1252
     36 C         139.9066  140.0390  167.8093 C.3     1  UNL1        0.1586
     37 O         138.6363  139.3364  168.1871 O.3     1  UNL1       -0.3802
     38 H         137.9410  139.9922  168.3525 H       1  UNL1        0.2105
@<TRIPOS>BOND
     1    21    22    1
     2    22    23   ar
     3    23    24   ar
     4    24    25   ar
     5    25    20    1
     6    20    13    1
     7    13    14   ar
     8    14    15   ar
     9    15    16   ar
    10    16    11    1
    11    11     1    1
    12     1     2   ar
    13     2     3   ar
    14     3     4   ar
    15     4     5   ar
    16     5     6   ar
    17     6     7   ar
    18     7     8   ar
    19     8     9   ar
    20     9    28    1
    21    28    29    1
    22    29    30    1
    23    29    31    1
    24    31    32    2
    25    31    33   am
    26    33    34    1
    27    33    35    1
    28    35    36    1
    29    36    37    1
    30     9    10   ar
    31    16    17   ar
    32    17    18   ar
    33    18    19    1
    34    25    26   ar
    35    26    27   ar
    36    27    22   ar
    37    18    13   ar
    38    10     1   ar
    39    10     5   ar
    40    11    12    1
    41    37    38    1
@<TRIPOS>MOLECULE
*****
 38 41 0 0 0
SMALL
GASTEIGER

@<TRIPOS>ATOM
      1 C         140.1161  140.0171  164.1444 C.ar    1  UNL1        0.1383
      2 N         140.7676  138.7337  163.7222 N.ar    1  UNL1       -0.2088
      3 C         141.8589  138.1357  164.5597 C.ar    1  UNL1        0.2000
      4 N         142.2987  138.8212  165.8194 N.ar    1  UNL1       -0.2238
      5 C         141.6471  140.1046  166.2415 C.ar    1  UNL1        0.0887
      6 C         142.0869  140.7901  167.5012 C.ar    1  UNL1        0.0195
      7 C         141.4354  142.0735  167.9234 C.ar    1  UNL1        0.0047
      8 C         140.3440  142.6715  167.0858 C.ar    1  UNL1        0.0371
      9 C         139.9042  141.9861  165.8262 C.ar    1  UNL1        0.1432
     10 C         140.5558  140.7026  165.4040 C.ar    1  UNL1        0.0833
     11 N         139.0247  140.6152  163.3069 N.pl3   1  UNL1       -0.2978
     12 H         138.1296  140.7555  163.6919 H       1  UNL1        0.1536
     13 C         139.8424  141.7676  159.0345 C.ar    1  UNL1        0.1414
     14 C         138.4369  141.4946  159.4818 C.ar    1  UNL1        0.0384
     15 C         138.1643  141.1105  160.9059 C.ar    1  UNL1        0.0178
     16 C         139.2973  140.9993  161.8827 C.ar    1  UNL1        0.0492
     17 C         140.7027  141.2723  161.4354 C.ar    1  UNL1        0.0134
     18 C         140.9753  141.6564  160.0113 C.ar    1  UNL1        0.0139
     19 C         142.3808  141.9294  159.5640 C.3     1  UNL1        0.0343
     20 O         140.1150  142.1518  157.6104 O.3     1  UNL1       -0.4522
     21 C         139.0123  147.7481  155.7490 C.3     1  UNL1        0.0521
     22 C         139.2879  146.3490  156.2144 C.ar    1  UNL1        0.0596
     23 C         140.3019  146.1032  157.2921 C.ar    1  UNL1        0.0179
     24 C         140.5776  144.7041  157.7574 C.ar    1  UNL1        0.0403
     25 C         139.8393  143.5508  157.1450 C.ar    1  UNL1        0.1643
     26 C         138.8254  143.7967  156.0673 C.ar    1  UNL1        0.1358
     27 N         138.5497  145.1958  155.6019 N.ar    1  UNL1       -0.2449
     28 O         138.8130  142.5841  164.9887 O.3     1  UNL1       -0.4698
     29 C         138.8389  144.0464  164.6557 C.3     1  UNL1        0.2413
     30 C         138.5616  145.0636  165.7226 C.3     1  UNL1        0.0574
     31 C         139.1423  144.4915  163.2557 C.2     1  UNL1        0.2660
     32 O         138.0217  144.7843  162.3024 O.2     1  UNL1       -0.2710
     33 N         140.5661  144.6438  162.8090 N.am    1  UNL1       -0.2723
     34 C         140.8694  145.0889  161.4091 C.3     1  UNL1        0.1150
     35 C         141.6865  144.3510  163.7623 C.3     1  UNL1        0.1252
     36 C         142.8767  145.2620  163.8233 C.3     1  UNL1        0.1586
     37 O         143.8588  145.2898  162.6899 O.3     1  UNL1       -0.3802
     38 H         144.3120  144.4341  162.6337 H       1  UNL1        0.2105
@<TRIPOS>BOND
     1    21    22    1
     2    22    23   ar
     3    23    24   ar
     4    24    25   ar
     5    25    20    1
     6    20    13    1
     7    13    14   ar
     8    14    15   ar
     9    15    16   ar
    10    16    11    1
    11    11     1    1
    12     1     2   ar
    13     2     3   ar
    14     3     4   ar
    15     4     5   ar
    16     5     6   ar
    17     6     7   ar
    18     7     8   ar
    19     8     9   ar
    20     9    28    1
    21    28    29    1
    22    29    30    1
    23    29    31    1
    24    31    32    2
    25    31    33   am
    26    33    34    1
    27    33    35    1
    28    35    36    1
    29    36    37    1
    30     9    10   ar
    31    16    17   ar
    32    17    18   ar
    33    18    19    1
    34    25    26   ar
    35    26    27   ar
    36    27    22   ar
    37    18    13   ar
    38    10     1   ar
    39    10     5   ar
    40    11    12    1
    41    37    38    1
@<TRIPOS>MOLECULE
*****
 38 41 0 0 0
SMALL
GASTEIGER

@<TRIPOS>ATOM
      1 C         139.5483  140.1244  165.4498 C.ar    1  UNL1        0.1383
      2 N         138.5346  139.0323  165.2784 N.ar    1  UNL1       -0.2088
      3 C         137.8619  138.4380  166.4802 C.ar    1  UNL1        0.2000
      4 N         138.2030  138.9359  167.8534 N.ar    1  UNL1       -0.2238
      5 C         139.2168  140.0280  168.0249 C.ar    1  UNL1        0.0887
      6 C         139.5579  140.5259  169.3981 C.ar    1  UNL1        0.0195
      7 C         140.5717  141.6180  169.5696 C.ar    1  UNL1        0.0047
      8 C         141.2444  142.2123  168.3677 C.ar    1  UNL1        0.0371
      9 C         140.9033  141.7145  166.9945 C.ar    1  UNL1        0.1432
     10 C         139.8895  140.6223  166.8231 C.ar    1  UNL1        0.0833
     11 N         140.2211  140.7188  164.2480 N.pl3   1  UNL1       -0.2978
     12 H         141.0418  141.2516  164.3565 H       1  UNL1        0.1536
     13 C         138.4878  140.0661  160.1468 C.ar    1  UNL1        0.1414
     14 C         137.7026  140.8152  161.1824 C.ar    1  UNL1        0.0384
     15 C         138.2803  141.0328  162.5494 C.ar    1  UNL1        0.0178
     16 C         139.6433  140.5012  162.8810 C.ar    1  UNL1        0.0492
     17 C         140.4285  139.7522  161.8454 C.ar    1  UNL1        0.0134
     18 C         139.8507  139.5346  160.4784 C.ar    1  UNL1        0.0139
     19 C         140.6360  138.7855  159.4428 C.3     1  UNL1        0.0343
     20 O         137.9101  139.8485  158.7797 O.3     1  UNL1       -0.4522
     21 C         137.3600  144.4642  154.9860 C.3     1  UNL1        0.0521
     22 C         137.4975  143.3103  155.9344 C.ar    1  UNL1        0.0596
     23 C         138.6256  143.2821  156.9227 C.ar    1  UNL1        0.0179
     24 C         138.7631  142.1282  157.8712 C.ar    1  UNL1        0.0403
     25 C         137.7726  141.0024  157.8313 C.ar    1  UNL1        0.1643
     26 C         136.6446  141.0306  156.8430 C.ar    1  UNL1        0.1358
     27 N         136.5071  142.1846  155.8945 N.ar    1  UNL1       -0.2449
     28 O         141.5760  142.3088  165.7927 O.3     1  UNL1       -0.4698
     29 C         143.0264  142.0299  165.5305 C.3     1  UNL1        0.2413
     30 C         144.0570  143.0791  165.8249 C.3     1  UNL1        0.0574
     31 C         143.4460  140.7017  164.9738 C.2     1  UNL1        0.2660
     32 O         143.5952  139.5198  165.8853 O.2     1  UNL1       -0.2710
     33 N         143.7164  140.5555  163.5057 N.am    1  UNL1       -0.2723
     34 C         144.1360  139.2273  162.9490 C.3     1  UNL1        0.1150
     35 C         143.5671  141.7374  162.5942 C.3     1  UNL1        0.1252
     36 C         144.7821  142.4851  162.1306 C.3     1  UNL1        0.1586
     37 O         144.7718  143.9846  162.0955 O.3     1  UNL1       -0.3802
     38 H         144.1317  144.2882  161.4329 H       1  UNL1        0.2105
@<TRIPOS>BOND
     1    21    22    1
     2    22    23   ar
     3    23    24   ar
     4    24    25   ar
     5    25    20    1
     6    20    13    1
     7    13    14   ar
     8    14    15   ar
     9    15    16   ar
    10    16    11    1
    11    11     1    1
    12     1     2   ar
    13     2     3   ar
    14     3     4   ar
    15     4     5   ar
    16     5     6   ar
    17     6     7   ar
    18     7     8   ar
    19     8     9   ar
    20     9    28    1
    21    28    29    1
    22    29    30    1
    23    29    31    1
    24    31    32    2
    25    31    33   am
    26    33    34    1
    27    33    35    1
    28    35    36    1
    29    36    37    1
    30     9    10   ar
    31    16    17   ar
    32    17    18   ar
    33    18    19    1
    34    25    26   ar
    35    26    27   ar
    36    27    22   ar
    37    18    13   ar
    38    10     1   ar
    39    10     5   ar
    40    11    12    1
    41    37    38    1
