@<TRIPOS>MOLECULE
*****
 32 37 0 0 0
SMALL
GASTEIGER

@<TRIPOS>ATOM
      1 C         138.7852  139.2464  163.8458 C.ar    1  UNL1        0.1188
      2 C         139.0954  137.9742  163.1141 C.ar    1  UNL1        0.0223
      3 C         139.1382  137.9628  161.6148 C.ar    1  UNL1        0.0032
      4 C         138.8709  139.2235  160.8472 C.ar    1  UNL1        0.0189
      5 C         138.9138  139.2120  159.3478 C.ar    1  UNL1        0.0016
      6 C         138.6465  140.4727  158.5802 C.ar    1  UNL1        0.0014
      7 C         138.3364  141.7449  159.3120 C.ar    1  UNL1        0.0158
      8 C         138.2936  141.7563  160.8113 C.ar    1  UNL1        0.0625
      9 C         138.5608  140.4957  161.5789 C.ar    1  UNL1        0.0944
     10 N         138.5180  140.5070  163.0783 N.ar    1  UNL1       -0.2410
     11 C         143.4905  142.2482  169.3737 C.3     1  UNL1        0.1124
     12 N         142.2288  141.4875  169.6555 N.pl3   1  UNL1       -0.2987
     13 C         141.7923  141.2573  171.0719 C.3     1  UNL1        0.1387
     14 C         140.5306  140.4965  171.3537 C.3     1  UNL1        0.2269
     15 O         139.7055  139.9659  170.2190 O.3     1  UNL1       -0.4692
     16 C         140.1420  140.1961  168.8025 C.ar    1  UNL1        0.1907
     17 C         141.4037  140.9569  168.5208 C.ar    1  UNL1        0.1067
     18 C         141.8402  141.1871  167.1042 C.ar    1  UNL1        0.1382
     19 N         141.0150  140.6565  165.9695 N.ar    1  UNL1       -0.1592
     20 N         139.7534  139.8957  166.2513 N.ar    1  UNL1       -0.1869
     21 C         138.7424  139.2578  165.3452 C.ar    1  UNL1        0.2041
     22 N         137.6811  138.6334  166.2017 N.ar    1  UNL1       -0.1253
     23 N         138.0361  138.8854  167.6372 N.ar    1  UNL1       -0.1237
     24 C         139.3168  139.6656  167.6677 C.ar    1  UNL1        0.2218
     25 N         137.9834  143.0285  161.5431 N.pl3   1  UNL1       -0.3329
     26 H         137.0723  143.4006  161.5192 H       1  UNL1        0.1468
     27 C         139.0616  143.7336  162.3114 C.3     1  UNL1        0.0691
     28 C         140.3418  144.1153  161.6290 C.3     1  UNL1        0.0195
     29 C         141.4200  144.8205  162.3973 C.3     1  UNL1        0.0017
     30 C         141.2180  145.1439  163.8480 C.3     1  UNL1        0.0001
     31 C         139.9379  144.7622  164.5305 C.3     1  UNL1        0.0017
     32 C         138.8598  144.0571  163.7622 C.3     1  UNL1        0.0195
@<TRIPOS>BOND
     1    11    12    1
     2    12    13    1
     3    13    14    1
     4    14    15    1
     5    15    16    1
     6    16    17   ar
     7    17    18   ar
     8    18    19   ar
     9    19    20   ar
    10    20    21   ar
    11    21     1    1
    12     1     2   ar
    13     2     3   ar
    14     3     4   ar
    15     4     5   ar
    16     5     6   ar
    17     6     7   ar
    18     7     8   ar
    19     8    25    1
    20    25    27    1
    21    27    28    1
    22    28    29    1
    23    29    30    1
    24    30    31    1
    25    31    32    1
    26     8     9   ar
    27     9    10   ar
    28    21    22   ar
    29    22    23   ar
    30    23    24   ar
    31    17    12    1
    32    24    20   ar
    33    24    16   ar
    34    10     1   ar
    35     9     4   ar
    36    32    27    1
    37    25    26    1
@<TRIPOS>MOLECULE
*****
 32 37 0 0 0
SMALL
GASTEIGER

@<TRIPOS>ATOM
      1 C         139.1950  138.9965  163.6142 C.ar    1  UNL1        0.1188
      2 C         138.0033  139.1954  162.7253 C.ar    1  UNL1        0.0223
      3 C         138.1556  139.1064  161.2358 C.ar    1  UNL1        0.0032
      4 C         139.4996  138.8185  160.6351 C.ar    1  UNL1        0.0189
      5 C         139.6518  138.7295  159.1455 C.ar    1  UNL1        0.0016
      6 C         140.9958  138.4416  158.5449 C.ar    1  UNL1        0.0014
      7 C         142.1876  138.2427  159.4338 C.ar    1  UNL1        0.0158
      8 C         142.0353  138.3317  160.9234 C.ar    1  UNL1        0.0625
      9 C         140.6913  138.6196  161.5240 C.ar    1  UNL1        0.0944
     10 N         140.5390  138.7086  163.0137 N.ar    1  UNL1       -0.2410
     11 C         143.5534  142.1812  169.3213 C.3     1  UNL1        0.1124
     12 N         142.2566  141.4615  169.5458 N.pl3   1  UNL1       -0.2987
     13 C         141.7121  141.3130  170.9355 C.3     1  UNL1        0.1387
     14 C         140.4153  140.5933  171.1600 C.3     1  UNL1        0.2269
     15 O         139.6630  140.0222  169.9948 O.3     1  UNL1       -0.4692
     16 C         140.2074  140.1708  168.6050 C.ar    1  UNL1        0.1907
     17 C         141.5043  140.8905  168.3805 C.ar    1  UNL1        0.1067
     18 C         142.0488  141.0390  166.9907 C.ar    1  UNL1        0.1382
     19 N         141.2964  140.4679  165.8255 N.ar    1  UNL1       -0.1592
     20 N         139.9996  139.7483  166.0500 N.ar    1  UNL1       -0.1869
     21 C         139.0427  139.0855  165.1039 C.ar    1  UNL1        0.2041
     22 N         137.9068  138.5273  165.9090 N.ar    1  UNL1       -0.1253
     23 N         138.1617  138.8451  167.3526 N.ar    1  UNL1       -0.1237
     24 C         139.4551  139.5997  167.4397 C.ar    1  UNL1        0.2218
     25 N         143.2270  138.1328  161.8124 N.pl3   1  UNL1       -0.3329
     26 H         143.5211  137.2225  162.0451 H       1  UNL1        0.1468
     27 C         143.9706  139.3208  162.3469 C.3     1  UNL1        0.0691
     28 C         144.1861  140.5241  161.4774 C.3     1  UNL1        0.0195
     29 C         144.9296  141.7121  162.0119 C.3     1  UNL1        0.0017
     30 C         145.4576  141.6969  163.4158 C.3     1  UNL1        0.0001
     31 C         145.2422  140.4938  164.2852 C.3     1  UNL1        0.0017
     32 C         144.4986  139.3057  163.7508 C.3     1  UNL1        0.0195
@<TRIPOS>BOND
     1    11    12    1
     2    12    13    1
     3    13    14    1
     4    14    15    1
     5    15    16    1
     6    16    17   ar
     7    17    18   ar
     8    18    19   ar
     9    19    20   ar
    10    20    21   ar
    11    21     1    1
    12     1     2   ar
    13     2     3   ar
    14     3     4   ar
    15     4     5   ar
    16     5     6   ar
    17     6     7   ar
    18     7     8   ar
    19     8    25    1
    20    25    27    1
    21    27    28    1
    22    28    29    1
    23    29    30    1
    24    30    31    1
    25    31    32    1
    26     8     9   ar
    27     9    10   ar
    28    21    22   ar
    29    22    23   ar
    30    23    24   ar
    31    17    12    1
    32    24    20   ar
    33    24    16   ar
    34    10     1   ar
    35     9     4   ar
    36    32    27    1
    37    25    26    1
@<TRIPOS>MOLECULE
*****
 32 37 0 0 0
SMALL
GASTEIGER

@<TRIPOS>ATOM
      1 C         142.5273  143.3951  161.7810 C.ar    1  UNL1        0.1188
      2 C         143.9081  143.8519  162.1480 C.ar    1  UNL1        0.0223
      3 C         144.8112  142.9508  162.9369 C.ar    1  UNL1        0.0032
      4 C         144.3335  141.5929  163.3588 C.ar    1  UNL1        0.0189
      5 C         145.2367  140.6918  164.1476 C.ar    1  UNL1        0.0016
      6 C         144.7590  139.3339  164.5695 C.ar    1  UNL1        0.0014
      7 C         143.3782  138.8772  164.2026 C.ar    1  UNL1        0.0158
      8 C         142.4750  139.7783  163.4137 C.ar    1  UNL1        0.0625
      9 C         142.9527  141.1361  162.9918 C.ar    1  UNL1        0.0944
     10 N         142.0496  142.0373  162.2029 N.ar    1  UNL1       -0.2410
     11 C         142.1856  145.4291  154.2011 C.3     1  UNL1        0.1124
     12 N         141.2457  145.9305  155.2571 N.pl3   1  UNL1       -0.2987
     13 C         140.1491  146.8867  154.8922 C.3     1  UNL1        0.1387
     14 C         139.2091  147.3881  155.9481 C.3     1  UNL1        0.2269
     15 O         139.3657  146.9334  157.3689 O.3     1  UNL1       -0.4692
     16 C         140.4622  145.9772  157.7337 C.ar    1  UNL1        0.1907
     17 C         141.4022  145.4757  156.6778 C.ar    1  UNL1        0.1067
     18 C         142.4988  144.5195  157.0427 C.ar    1  UNL1        0.1382
     19 N         142.6554  144.0647  158.4635 N.ar    1  UNL1       -0.1592
     20 N         141.7154  144.5661  159.5194 N.ar    1  UNL1       -0.1869
     21 C         141.6241  144.2963  160.9921 C.ar    1  UNL1        0.2041
     22 N         140.4711  145.0857  161.5374 N.ar    1  UNL1       -0.1253
     23 N         139.8498  145.8435  160.4017 N.ar    1  UNL1       -0.1237
     24 C         140.6188  145.5223  159.1546 C.ar    1  UNL1        0.2218
     25 N         141.0941  139.3215  163.0467 N.pl3   1  UNL1       -0.3329
     26 H         140.8563  139.1835  162.1014 H       1  UNL1        0.1468
     27 C         140.0757  139.0752  164.1200 C.3     1  UNL1        0.0691
     28 C         139.6820  137.6713  164.4725 C.3     1  UNL1        0.0195
     29 C         138.6636  137.4250  165.5458 C.3     1  UNL1        0.0017
     30 C         138.0388  138.5826  166.2667 C.3     1  UNL1        0.0001
     31 C         138.4324  139.9865  165.9143 C.3     1  UNL1        0.0017
     32 C         139.4509  140.2328  164.8410 C.3     1  UNL1        0.0195
@<TRIPOS>BOND
     1    11    12    1
     2    12    13    1
     3    13    14    1
     4    14    15    1
     5    15    16    1
     6    16    17   ar
     7    17    18   ar
     8    18    19   ar
     9    19    20   ar
    10    20    21   ar
    11    21     1    1
    12     1     2   ar
    13     2     3   ar
    14     3     4   ar
    15     4     5   ar
    16     5     6   ar
    17     6     7   ar
    18     7     8   ar
    19     8    25    1
    20    25    27    1
    21    27    28    1
    22    28    29    1
    23    29    30    1
    24    30    31    1
    25    31    32    1
    26     8     9   ar
    27     9    10   ar
    28    21    22   ar
    29    22    23   ar
    30    23    24   ar
    31    17    12    1
    32    24    20   ar
    33    24    16   ar
    34    10     1   ar
    35     9     4   ar
    36    32    27    1
    37    25    26    1
@<TRIPOS>MOLECULE
*****
 32 37 0 0 0
SMALL
GASTEIGER

@<TRIPOS>ATOM
      1 C         138.9652  139.3336  164.8738 C.ar    1  UNL1        0.1188
      2 C         138.1383  138.5524  165.8517 C.ar    1  UNL1        0.0223
      3 C         138.2109  138.8688  167.3161 C.ar    1  UNL1        0.0032
      4 C         139.1103  139.9661  167.8027 C.ar    1  UNL1        0.0189
      5 C         139.1829  140.2824  169.2672 C.ar    1  UNL1        0.0016
      6 C         140.0823  141.3797  169.7538 C.ar    1  UNL1        0.0014
      7 C         140.9092  142.1608  168.7760 C.ar    1  UNL1        0.0158
      8 C         140.8366  141.8446  167.3115 C.ar    1  UNL1        0.0625
      9 C         139.9372  140.7472  166.8249 C.ar    1  UNL1        0.0944
     10 N         139.8646  140.4309  165.3604 N.ar    1  UNL1       -0.2410
     11 C         139.5727  143.6813  158.3595 C.3     1  UNL1        0.1124
     12 N         139.3335  142.2006  158.3717 N.pl3   1  UNL1       -0.2987
     13 C         139.1937  141.4528  157.0790 C.3     1  UNL1        0.1387
     14 C         138.9545  139.9720  157.0912 C.3     1  UNL1        0.2269
     15 O         138.8551  139.2391  158.3961 O.3     1  UNL1       -0.4692
     16 C         138.9949  139.9869  159.6888 C.ar    1  UNL1        0.1907
     17 C         139.2341  141.4676  159.6766 C.ar    1  UNL1        0.1067
     18 C         139.3739  142.2154  160.9695 C.ar    1  UNL1        0.1382
     19 N         139.2745  141.4825  162.2744 N.ar    1  UNL1       -0.1592
     20 N         139.0353  140.0017  162.2866 N.ar    1  UNL1       -0.1869
     21 C         138.8926  139.0173  163.4093 C.ar    1  UNL1        0.2041
     22 N         138.6646  137.6611  162.8104 N.ar    1  UNL1       -0.1253
     23 N         138.6664  137.8073  161.3175 N.ar    1  UNL1       -0.1237
     24 C         138.8955  139.2539  160.9938 C.ar    1  UNL1        0.2218
     25 N         141.6635  142.6257  166.3336 N.pl3   1  UNL1       -0.3329
     26 H         142.6460  142.5726  166.3669 H       1  UNL1        0.1468
     27 C         140.9933  143.4876  165.3050 C.3     1  UNL1        0.0691
     28 C         139.5738  143.9290  165.5061 C.3     1  UNL1        0.0195
     29 C         138.9036  144.7909  164.4775 C.3     1  UNL1        0.0017
     30 C         139.6529  145.2113  163.2479 C.3     1  UNL1        0.0001
     31 C         141.0723  144.7699  163.0469 C.3     1  UNL1        0.0017
     32 C         141.7425  143.9080  164.0754 C.3     1  UNL1        0.0195
@<TRIPOS>BOND
     1    11    12    1
     2    12    13    1
     3    13    14    1
     4    14    15    1
     5    15    16    1
     6    16    17   ar
     7    17    18   ar
     8    18    19   ar
     9    19    20   ar
    10    20    21   ar
    11    21     1    1
    12     1     2   ar
    13     2     3   ar
    14     3     4   ar
    15     4     5   ar
    16     5     6   ar
    17     6     7   ar
    18     7     8   ar
    19     8    25    1
    20    25    27    1
    21    27    28    1
    22    28    29    1
    23    29    30    1
    24    30    31    1
    25    31    32    1
    26     8     9   ar
    27     9    10   ar
    28    21    22   ar
    29    22    23   ar
    30    23    24   ar
    31    17    12    1
    32    24    20   ar
    33    24    16   ar
    34    10     1   ar
    35     9     4   ar
    36    32    27    1
    37    25    26    1
@<TRIPOS>MOLECULE
*****
 32 37 0 0 0
SMALL
GASTEIGER

@<TRIPOS>ATOM
      1 C         138.8916  140.1311  164.8041 C.ar    1  UNL1        0.1188
      2 C         138.0770  139.2847  165.7369 C.ar    1  UNL1        0.0223
      3 C         138.4035  139.2547  167.2006 C.ar    1  UNL1        0.0032
      4 C         139.5444  140.0709  167.7316 C.ar    1  UNL1        0.0189
      5 C         139.8708  140.0408  169.1953 C.ar    1  UNL1        0.0016
      6 C         141.0117  140.8571  169.7262 C.ar    1  UNL1        0.0014
      7 C         141.8263  141.7035  168.7934 C.ar    1  UNL1        0.0158
      8 C         141.5000  141.7336  167.3297 C.ar    1  UNL1        0.0625
      9 C         140.3590  140.9173  166.7988 C.ar    1  UNL1        0.0944
     10 N         140.0325  140.9474  165.3350 N.ar    1  UNL1       -0.2410
     11 C         142.6292  137.6110  158.3708 C.3     1  UNL1        0.1124
     12 N         141.2942  138.2949  158.3630 N.pl3   1  UNL1       -0.2987
     13 C         140.5835  138.5376  157.0645 C.3     1  UNL1        0.1387
     14 C         139.2485  139.2215  157.0567 C.3     1  UNL1        0.2269
     15 O         138.6242  139.6627  158.3472 O.3     1  UNL1       -0.4692
     16 C         139.3350  139.4200  159.6456 C.ar    1  UNL1        0.1907
     17 C         140.6700  138.7361  159.6535 C.ar    1  UNL1        0.1067
     18 C         141.3807  138.4933  160.9520 C.ar    1  UNL1        0.1382
     19 N         140.7564  138.9345  162.2426 N.ar    1  UNL1       -0.1592
     20 N         139.4214  139.6185  162.2347 N.ar    1  UNL1       -0.1869
     21 C         138.5652  140.1612  163.3403 C.ar    1  UNL1        0.2041
     22 N         137.3253  140.7394  162.7251 N.ar    1  UNL1       -0.1253
     23 N         137.4153  140.5539  161.2393 N.ar    1  UNL1       -0.1237
     24 C         138.7107  139.8612  160.9363 C.ar    1  UNL1        0.2218
     25 N         142.3145  142.5800  166.3968 N.pl3   1  UNL1       -0.3329
     26 H         142.1512  143.5493  166.3421 H       1  UNL1        0.1468
     27 C         143.3779  141.9494  165.5473 C.3     1  UNL1        0.0691
     28 C         144.3812  142.8110  164.8393 C.3     1  UNL1        0.0195
     29 C         145.4445  142.1804  163.9898 C.3     1  UNL1        0.0017
     30 C         145.5046  140.6882  163.8484 C.3     1  UNL1        0.0001
     31 C         144.5014  139.8267  164.5564 C.3     1  UNL1        0.0017
     32 C         143.4380  140.4573  165.4059 C.3     1  UNL1        0.0195
@<TRIPOS>BOND
     1    11    12    1
     2    12    13    1
     3    13    14    1
     4    14    15    1
     5    15    16    1
     6    16    17   ar
     7    17    18   ar
     8    18    19   ar
     9    19    20   ar
    10    20    21   ar
    11    21     1    1
    12     1     2   ar
    13     2     3   ar
    14     3     4   ar
    15     4     5   ar
    16     5     6   ar
    17     6     7   ar
    18     7     8   ar
    19     8    25    1
    20    25    27    1
    21    27    28    1
    22    28    29    1
    23    29    30    1
    24    30    31    1
    25    31    32    1
    26     8     9   ar
    27     9    10   ar
    28    21    22   ar
    29    22    23   ar
    30    23    24   ar
    31    17    12    1
    32    24    20   ar
    33    24    16   ar
    34    10     1   ar
    35     9     4   ar
    36    32    27    1
    37    25    26    1
@<TRIPOS>MOLECULE
*****
 32 37 0 0 0
SMALL
GASTEIGER

@<TRIPOS>ATOM
      1 C         141.3673  143.8973  163.3947 C.ar    1  UNL1        0.1188
      2 C         142.7549  144.1626  163.8990 C.ar    1  UNL1        0.0223
      3 C         143.2777  143.4104  165.0867 C.ar    1  UNL1        0.0032
      4 C         142.4131  142.3928  165.7701 C.ar    1  UNL1        0.0189
      5 C         142.9361  141.6406  166.9578 C.ar    1  UNL1        0.0016
      6 C         142.0715  140.6230  167.6412 C.ar    1  UNL1        0.0014
      7 C         140.6839  140.3577  167.1369 C.ar    1  UNL1        0.0158
      8 C         140.1610  141.1099  165.9492 C.ar    1  UNL1        0.0625
      9 C         141.0256  142.1275  165.2658 C.ar    1  UNL1        0.0944
     10 N         140.5027  142.8798  164.0780 N.ar    1  UNL1       -0.2410
     11 C         143.0214  143.7210  155.7174 C.3     1  UNL1        0.1124
     12 N         141.9998  144.6227  156.3444 N.pl3   1  UNL1       -0.2987
     13 C         141.2140  145.5736  155.4910 C.3     1  UNL1        0.1387
     14 C         140.1924  146.4753  156.1180 C.3     1  UNL1        0.2269
     15 O         139.9565  146.4262  157.5985 O.3     1  UNL1       -0.4692
     16 C         140.7422  145.4753  158.4519 C.ar    1  UNL1        0.1907
     17 C         141.7639  144.5736  157.8249 C.ar    1  UNL1        0.1067
     18 C         142.5496  143.6227  158.6785 C.ar    1  UNL1        0.1382
     19 N         142.3137  143.5736  160.1589 N.ar    1  UNL1       -0.1592
     20 N         141.2921  144.4753  160.7860 N.ar    1  UNL1       -0.1869
     21 C         140.8444  144.6496  162.2069 C.ar    1  UNL1        0.2041
     22 N         139.7820  145.7082  162.2317 N.ar    1  UNL1       -0.1253
     23 N         139.5730  146.1881  160.8259 N.ar    1  UNL1       -0.1237
     24 C         140.5064  145.4261  159.9325 C.ar    1  UNL1        0.2218
     25 N         138.7734  140.8447  165.4448 N.pl3   1  UNL1       -0.3329
     26 H         138.0003  141.2639  165.8872 H       1  UNL1        0.1468
     27 C         138.5639  139.9406  164.2664 C.3     1  UNL1        0.0691
     28 C         137.8919  140.4623  163.0309 C.3     1  UNL1        0.0195
     29 C         137.6825  139.5582  161.8524 C.3     1  UNL1        0.0017
     30 C         138.1449  138.1324  161.9095 C.3     1  UNL1        0.0001
     31 C         138.8169  137.6107  163.1449 C.3     1  UNL1        0.0017
     32 C         139.0264  138.5148  164.3233 C.3     1  UNL1        0.0195
@<TRIPOS>BOND
     1    11    12    1
     2    12    13    1
     3    13    14    1
     4    14    15    1
     5    15    16    1
     6    16    17   ar
     7    17    18   ar
     8    18    19   ar
     9    19    20   ar
    10    20    21   ar
    11    21     1    1
    12     1     2   ar
    13     2     3   ar
    14     3     4   ar
    15     4     5   ar
    16     5     6   ar
    17     6     7   ar
    18     7     8   ar
    19     8    25    1
    20    25    27    1
    21    27    28    1
    22    28    29    1
    23    29    30    1
    24    30    31    1
    25    31    32    1
    26     8     9   ar
    27     9    10   ar
    28    21    22   ar
    29    22    23   ar
    30    23    24   ar
    31    17    12    1
    32    24    20   ar
    33    24    16   ar
    34    10     1   ar
    35     9     4   ar
    36    32    27    1
    37    25    26    1
@<TRIPOS>MOLECULE
*****
 32 37 0 0 0
SMALL
GASTEIGER

@<TRIPOS>ATOM
      1 C         141.9442  141.6680  161.7131 C.ar    1  UNL1        0.1188
      2 C         142.7531  142.8987  161.9979 C.ar    1  UNL1        0.0223
      3 C         142.1705  144.0034  162.8286 C.ar    1  UNL1        0.0032
      4 C         140.7791  143.8775  163.3746 C.ar    1  UNL1        0.0189
      5 C         140.1966  144.9823  164.2053 C.ar    1  UNL1        0.0016
      6 C         138.8052  144.8563  164.7513 C.ar    1  UNL1        0.0014
      7 C         137.9963  143.6257  164.4665 C.ar    1  UNL1        0.0158
      8 C         138.5788  142.5209  163.6358 C.ar    1  UNL1        0.0625
      9 C         139.9702  142.6468  163.0898 C.ar    1  UNL1        0.0944
     10 N         140.5528  141.5420  162.2590 N.ar    1  UNL1       -0.2410
     11 C         139.1411  137.2390  155.8620 C.3     1  UNL1        0.1124
     12 N         140.5268  137.1231  156.4246 N.pl3   1  UNL1       -0.2987
     13 C         141.4803  136.1084  155.8669 C.3     1  UNL1        0.1387
     14 C         142.8659  135.9925  156.4295 C.3     1  UNL1        0.2269
     15 O         143.2981  136.8913  157.5499 O.3     1  UNL1       -0.4692
     16 C         142.3446  137.9061  158.1076 C.ar    1  UNL1        0.1907
     17 C         140.9589  138.0219  157.5450 C.ar    1  UNL1        0.1067
     18 C         140.0054  139.0367  158.1028 C.ar    1  UNL1        0.1382
     19 N         140.4376  139.9356  159.2232 N.ar    1  UNL1       -0.1592
     20 N         141.8232  139.8197  159.7858 N.ar    1  UNL1       -0.1869
     21 C         142.5267  140.5632  160.8823 C.ar    1  UNL1        0.2041
     22 N         143.9150  140.0079  161.0022 N.ar    1  UNL1       -0.1253
     23 N         144.0695  138.9213  159.9798 N.ar    1  UNL1       -0.1237
     24 C         142.7767  138.8050  159.2281 C.ar    1  UNL1        0.2218
     25 N         137.7699  141.2901  163.3509 N.pl3   1  UNL1       -0.3329
     26 H         137.0012  141.3373  162.7376 H       1  UNL1        0.1468
     27 C         138.1323  139.9876  164.0006 C.3     1  UNL1        0.0691
     28 C         138.1172  139.8653  165.4956 C.3     1  UNL1        0.0195
     29 C         138.4796  138.5628  166.1453 C.3     1  UNL1        0.0017
     30 C         138.8571  137.3825  165.2999 C.3     1  UNL1        0.0001
     31 C         138.8722  137.5048  163.8050 C.3     1  UNL1        0.0017
     32 C         138.5098  138.8073  163.1553 C.3     1  UNL1        0.0195
@<TRIPOS>BOND
     1    11    12    1
     2    12    13    1
     3    13    14    1
     4    14    15    1
     5    15    16    1
     6    16    17   ar
     7    17    18   ar
     8    18    19   ar
     9    19    20   ar
    10    20    21   ar
    11    21     1    1
    12     1     2   ar
    13     2     3   ar
    14     3     4   ar
    15     4     5   ar
    16     5     6   ar
    17     6     7   ar
    18     7     8   ar
    19     8    25    1
    20    25    27    1
    21    27    28    1
    22    28    29    1
    23    29    30    1
    24    30    31    1
    25    31    32    1
    26     8     9   ar
    27     9    10   ar
    28    21    22   ar
    29    22    23   ar
    30    23    24   ar
    31    17    12    1
    32    24    20   ar
    33    24    16   ar
    34    10     1   ar
    35     9     4   ar
    36    32    27    1
    37    25    26    1
@<TRIPOS>MOLECULE
*****
 32 37 0 0 0
SMALL
GASTEIGER

@<TRIPOS>ATOM
      1 C         141.0373  138.4191  163.1997 C.ar    1  UNL1        0.1188
      2 C         139.7516  137.6668  163.3757 C.ar    1  UNL1        0.0223
      3 C         138.9372  137.8548  164.6212 C.ar    1  UNL1        0.0032
      4 C         139.4084  138.7950  165.6907 C.ar    1  UNL1        0.0189
      5 C         138.5940  138.9829  166.9362 C.ar    1  UNL1        0.0016
      6 C         139.0652  139.9231  168.0058 C.ar    1  UNL1        0.0014
      7 C         140.3509  140.6754  167.8298 C.ar    1  UNL1        0.0158
      8 C         141.1654  140.4875  166.5843 C.ar    1  UNL1        0.0625
      9 C         140.6941  139.5473  165.5148 C.ar    1  UNL1        0.0944
     10 N         141.5086  139.3593  164.2691 N.ar    1  UNL1       -0.2410
     11 C         139.3155  138.5356  155.5362 C.3     1  UNL1        0.1124
     12 N         140.6864  138.2917  156.0938 N.pl3   1  UNL1       -0.2987
     13 C         141.8406  138.0482  155.1673 C.3     1  UNL1        0.1387
     14 C         143.2116  137.8043  155.7250 C.3     1  UNL1        0.2269
     15 O         143.4283  137.8038  157.2092 O.3     1  UNL1       -0.4692
     16 C         142.2741  138.0472  158.1357 C.ar    1  UNL1        0.1907
     17 C         140.9032  138.2912  157.5781 C.ar    1  UNL1        0.1067
     18 C         139.7490  138.5346  158.5047 C.ar    1  UNL1        0.1382
     19 N         139.9657  138.5341  159.9889 N.ar    1  UNL1       -0.1592
     20 N         141.3367  138.2902  160.5466 N.ar    1  UNL1       -0.1869
     21 C         141.8518  138.2312  161.9541 C.ar    1  UNL1        0.2041
     22 N         143.3243  137.9513  161.8974 N.ar    1  UNL1       -0.1253
     23 N         143.7193  137.8373  160.4549 N.ar    1  UNL1       -0.1237
     24 C         142.4909  138.0467  159.6200 C.ar    1  UNL1        0.2218
     25 N         142.4511  141.2398  166.4082 N.pl3   1  UNL1       -0.3329
     26 H         143.2731  140.9187  166.8446 H       1  UNL1        0.1468
     27 C         142.4844  142.4814  165.5672 C.3     1  UNL1        0.0691
     28 C         141.2023  143.1215  165.1237 C.3     1  UNL1        0.0195
     29 C         141.2355  144.3631  164.2827 C.3     1  UNL1        0.0017
     30 C         142.5509  144.9647  163.8852 C.3     1  UNL1        0.0001
     31 C         143.8330  144.3246  164.3287 C.3     1  UNL1        0.0017
     32 C         143.7997  143.0830  165.1697 C.3     1  UNL1        0.0195
@<TRIPOS>BOND
     1    11    12    1
     2    12    13    1
     3    13    14    1
     4    14    15    1
     5    15    16    1
     6    16    17   ar
     7    17    18   ar
     8    18    19   ar
     9    19    20   ar
    10    20    21   ar
    11    21     1    1
    12     1     2   ar
    13     2     3   ar
    14     3     4   ar
    15     4     5   ar
    16     5     6   ar
    17     6     7   ar
    18     7     8   ar
    19     8    25    1
    20    25    27    1
    21    27    28    1
    22    28    29    1
    23    29    30    1
    24    30    31    1
    25    31    32    1
    26     8     9   ar
    27     9    10   ar
    28    21    22   ar
    29    22    23   ar
    30    23    24   ar
    31    17    12    1
    32    24    20   ar
    33    24    16   ar
    34    10     1   ar
    35     9     4   ar
    36    32    27    1
    37    25    26    1
@<TRIPOS>MOLECULE
*****
 32 37 0 0 0
SMALL
GASTEIGER

@<TRIPOS>ATOM
      1 C         138.9566  142.2505  159.5850 C.ar    1  UNL1        0.1188
      2 C         139.7319  143.5211  159.3991 C.ar    1  UNL1        0.0223
      3 C         139.9021  144.4706  160.5478 C.ar    1  UNL1        0.0032
      4 C         139.2971  144.1496  161.8823 C.ar    1  UNL1        0.0189
      5 C         139.4674  145.0991  163.0309 C.ar    1  UNL1        0.0016
      6 C         138.8624  144.7780  164.3654 C.ar    1  UNL1        0.0014
      7 C         138.0871  143.5074  164.5513 C.ar    1  UNL1        0.0158
      8 C         137.9168  142.5579  163.4027 C.ar    1  UNL1        0.0625
      9 C         138.5218  142.8789  162.0682 C.ar    1  UNL1        0.0944
     10 N         138.3516  141.9294  160.9194 N.ar    1  UNL1       -0.2410
     11 C         142.9916  135.9877  157.0941 C.3     1  UNL1        0.1124
     12 N         141.7577  136.5212  156.4287 N.pl3   1  UNL1       -0.2987
     13 C         141.2171  135.8491  155.2016 C.3     1  UNL1        0.1387
     14 C         139.9832  136.3826  154.5361 C.3     1  UNL1        0.2269
     15 O         139.2898  137.5883  155.0979 O.3     1  UNL1       -0.4692
     16 C         139.8304  138.2604  156.3250 C.ar    1  UNL1        0.1907
     17 C         141.0643  137.7269  156.9905 C.ar    1  UNL1        0.1067
     18 C         141.6049  138.3991  158.2177 C.ar    1  UNL1        0.1382
     19 N         140.9115  139.6047  158.7794 N.ar    1  UNL1       -0.1592
     20 N         139.6776  140.1382  158.1140 N.ar    1  UNL1       -0.1869
     21 C         138.7863  141.3009  158.4363 C.ar    1  UNL1        0.2041
     22 N         137.6950  141.3474  157.4083 N.ar    1  UNL1       -0.1253
     23 N         137.9117  140.2133  156.4507 N.ar    1  UNL1       -0.1237
     24 C         139.1370  139.4661  156.8868 C.ar    1  UNL1        0.2218
     25 N         137.1416  141.2872  163.5884 N.pl3   1  UNL1       -0.3329
     26 H         136.1705  141.2750  163.4270 H       1  UNL1        0.1468
     27 C         137.8460  140.0353  164.0202 C.3     1  UNL1        0.0691
     28 C         138.2693  139.0223  162.9980 C.3     1  UNL1        0.0195
     29 C         138.9737  137.7704  163.4297 C.3     1  UNL1        0.0017
     30 C         139.2548  137.5314  164.8837 C.3     1  UNL1        0.0001
     31 C         138.8315  138.5443  165.9059 C.3     1  UNL1        0.0017
     32 C         138.1271  139.7962  165.4741 C.3     1  UNL1        0.0195
@<TRIPOS>BOND
     1    11    12    1
     2    12    13    1
     3    13    14    1
     4    14    15    1
     5    15    16    1
     6    16    17   ar
     7    17    18   ar
     8    18    19   ar
     9    19    20   ar
    10    20    21   ar
    11    21     1    1
    12     1     2   ar
    13     2     3   ar
    14     3     4   ar
    15     4     5   ar
    16     5     6   ar
    17     6     7   ar
    18     7     8   ar
    19     8    25    1
    20    25    27    1
    21    27    28    1
    22    28    29    1
    23    29    30    1
    24    30    31    1
    25    31    32    1
    26     8     9   ar
    27     9    10   ar
    28    21    22   ar
    29    22    23   ar
    30    23    24   ar
    31    17    12    1
    32    24    20   ar
    33    24    16   ar
    34    10     1   ar
    35     9     4   ar
    36    32    27    1
    37    25    26    1
