@<TRIPOS>MOLECULE
*****
 35 39 0 0 0
SMALL
GASTEIGER

@<TRIPOS>ATOM
      1 C         139.9768  143.1149  162.6036 C.3     1  UNL1        0.0806
      2 C         140.3551  144.5640  162.5185 C.3     1  UNL1        0.0108
      3 C         140.6243  145.1916  161.1830 C.3     1  UNL1        0.0165
      4 C         140.5152  144.3702  159.9326 C.3     1  UNL1        0.0580
      5 C         140.1369  142.9212  160.0177 C.3     1  UNL1        0.0208
      6 C         139.8677  142.2936  161.3532 C.3     1  UNL1        0.0323
      7 N         140.7844  144.9978  158.5971 N.3     1  UNL1       -0.2697
      8 C         142.0457  144.6694  157.8546 C.3     1  UNL1        0.1046
      9 C         142.3150  145.2971  156.5191 C.3     1  UNL1        0.1595
     10 O         141.3228  146.2531  155.9260 O.3     1  UNL1       -0.3508
     11 C         140.0615  146.5815  156.6685 C.3     1  UNL1        0.1595
     12 C         139.7923  145.9539  158.0040 C.3     1  UNL1        0.1046
     13 C         139.4894  140.8445  161.4383 C.ar    1  UNL1       -0.0220
     14 C         140.5512  139.7871  161.3731 C.ar    1  UNL1       -0.0043
     15 C         140.1729  138.3381  161.4582 C.ar    1  UNL1       -0.0003
     16 C         138.7327  137.9466  161.6086 C.ar    1  UNL1       -0.0000
     17 C         137.6709  139.0040  161.6738 C.ar    1  UNL1       -0.0003
     18 C         138.0492  140.4530  161.5887 C.ar    1  UNL1       -0.0043
     19 O         138.3578  142.6320  164.5774 O.2     1  UNL1       -0.2751
     20 C         139.7076  142.4873  163.9391 C.2     1  UNL1        0.2227
     21 N         140.7880  141.7149  164.6363 N.am    1  UNL1       -0.2986
     22 H         141.6738  141.6199  164.2173 H       1  UNL1        0.1500
     23 C         140.5188  141.0873  165.9718 C.3     1  UNL1        0.1169
     24 C         139.6721  139.8524  166.0632 C.ar    1  UNL1       -0.0003
     25 C         138.6063  139.7498  167.1136 C.ar    1  UNL1       -0.0024
     26 C         137.7597  138.5149  167.2049 C.ar    1  UNL1       -0.0003
     27 C         137.9790  137.3827  166.2458 C.ar    1  UNL1       -0.0000
     28 C         139.0448  137.4852  165.1953 C.ar    1  UNL1       -0.0003
     29 C         139.8914  138.7201  165.1040 C.ar    1  UNL1       -0.0024
     30 C         141.0962  141.6945  167.2159 C.ar    1  UNL1       -0.0003
     31 C         140.2903  142.6746  168.0158 C.ar    1  UNL1       -0.0024
     32 C         140.8678  143.2818  169.2600 C.ar    1  UNL1       -0.0003
     33 C         142.2510  142.9089  169.7042 C.ar    1  UNL1       -0.0000
     34 C         143.0569  141.9287  168.9043 C.ar    1  UNL1       -0.0003
     35 C         142.4795  141.3215  167.6602 C.ar    1  UNL1       -0.0024
@<TRIPOS>BOND
     1    19    20    2
     2    20    21   am
     3    21    23    1
     4    23    24    1
     5    24    25   ar
     6    25    26   ar
     7    26    27   ar
     8    27    28   ar
     9    28    29   ar
    10    23    30    1
    11    30    31   ar
    12    31    32   ar
    13    32    33   ar
    14    33    34   ar
    15    34    35   ar
    16     1    20    1
    17     1     2    1
    18     2     3    1
    19     3     4    1
    20     4     7    1
    21     7     8    1
    22     8     9    1
    23     9    10    1
    24    10    11    1
    25    11    12    1
    26     4     5    1
    27     5     6    1
    28     6    13    1
    29    13    14   ar
    30    14    15   ar
    31    15    16   ar
    32    16    17   ar
    33    17    18   ar
    34    29    24   ar
    35    35    30   ar
    36     6     1    1
    37    18    13   ar
    38    12     7    1
    39    21    22    1
@<TRIPOS>MOLECULE
*****
 35 39 0 0 0
SMALL
GASTEIGER

@<TRIPOS>ATOM
      1 C         140.0134  143.1114  162.6104 C.3     1  UNL1        0.0806
      2 C         140.3955  144.5589  162.5158 C.3     1  UNL1        0.0108
      3 C         140.6698  145.1761  161.1765 C.3     1  UNL1        0.0165
      4 C         140.5622  144.3459  159.9318 C.3     1  UNL1        0.0580
      5 C         140.1801  142.8985  160.0265 C.3     1  UNL1        0.0208
      6 C         139.9058  142.2812  161.3658 C.3     1  UNL1        0.0323
      7 N         140.8365  144.9631  158.5925 N.3     1  UNL1       -0.2697
      8 C         139.8638  145.9419  158.0043 C.3     1  UNL1        0.1046
      9 C         140.1382  146.5591  156.6650 C.3     1  UNL1        0.1595
     10 O         141.3853  146.1975  155.9139 O.3     1  UNL1       -0.3508
     11 C         142.3579  145.2188  156.5020 C.3     1  UNL1        0.1595
     12 C         142.0835  144.6016  157.8413 C.3     1  UNL1        0.1046
     13 C         139.5237  140.8337  161.4604 C.ar    1  UNL1       -0.0220
     14 C         140.5837  139.7736  161.4124 C.ar    1  UNL1       -0.0043
     15 C         140.2017  138.3262  161.5071 C.ar    1  UNL1       -0.0003
     16 C         138.7595  137.9389  161.6497 C.ar    1  UNL1       -0.0000
     17 C         137.6995  138.9991  161.6977 C.ar    1  UNL1       -0.0003
     18 C         138.0816  140.4465  161.6030 C.ar    1  UNL1       -0.0043
     19 O         138.4005  142.6795  164.6009 O.2     1  UNL1       -0.2751
     20 C         139.7391  142.4942  163.9497 C.2     1  UNL1        0.2227
     21 N         140.8032  141.6917  164.6379 N.am    1  UNL1       -0.2986
     22 H         141.6817  141.5701  164.2105 H       1  UNL1        0.1500
     23 C         140.5288  141.0745  165.9772 C.3     1  UNL1        0.1169
     24 C         141.1090  141.6861  167.2179 C.ar    1  UNL1       -0.0003
     25 C         140.3088  142.6766  168.0106 C.ar    1  UNL1       -0.0024
     26 C         140.8891  143.2882  169.2512 C.ar    1  UNL1       -0.0003
     27 C         142.2695  142.9092  169.6992 C.ar    1  UNL1       -0.0000
     28 C         143.0697  141.9187  168.9065 C.ar    1  UNL1       -0.0003
     29 C         142.4895  141.3071  167.6659 C.ar    1  UNL1       -0.0024
     30 C         139.6743  139.8457  166.0758 C.ar    1  UNL1       -0.0003
     31 C         138.6125  139.7532  167.1313 C.ar    1  UNL1       -0.0024
     32 C         137.7580  138.5243  167.2299 C.ar    1  UNL1       -0.0003
     33 C         137.9652  137.3880  166.2730 C.ar    1  UNL1       -0.0000
     34 C         139.0269  137.4804  165.2175 C.ar    1  UNL1       -0.0003
     35 C         139.8815  138.7092  165.1189 C.ar    1  UNL1       -0.0024
@<TRIPOS>BOND
     1    19    20    2
     2    20    21   am
     3    21    23    1
     4    23    24    1
     5    24    25   ar
     6    25    26   ar
     7    26    27   ar
     8    27    28   ar
     9    28    29   ar
    10    23    30    1
    11    30    31   ar
    12    31    32   ar
    13    32    33   ar
    14    33    34   ar
    15    34    35   ar
    16     1    20    1
    17     1     2    1
    18     2     3    1
    19     3     4    1
    20     4     7    1
    21     7     8    1
    22     8     9    1
    23     9    10    1
    24    10    11    1
    25    11    12    1
    26     4     5    1
    27     5     6    1
    28     6    13    1
    29    13    14   ar
    30    14    15   ar
    31    15    16   ar
    32    16    17   ar
    33    17    18   ar
    34    29    24   ar
    35    35    30   ar
    36     6     1    1
    37    18    13   ar
    38    12     7    1
    39    21    22    1
@<TRIPOS>MOLECULE
*****
 35 39 0 0 0
SMALL
GASTEIGER

@<TRIPOS>ATOM
      1 C         140.2431  141.9179  161.2363 C.3     1  UNL1        0.0806
      2 C         139.2869  141.2863  160.2683 C.3     1  UNL1        0.0108
      3 C         138.9627  141.9759  158.9763 C.3     1  UNL1        0.0165
      4 C         139.5947  143.2971  158.6523 C.3     1  UNL1        0.0580
      5 C         140.5508  143.9287  159.6202 C.3     1  UNL1        0.0208
      6 C         140.8750  143.2390  160.9122 C.3     1  UNL1        0.0323
      7 N         139.2705  143.9868  157.3603 N.3     1  UNL1       -0.2697
      8 C         139.9632  145.2674  156.9993 C.3     1  UNL1        0.1046
      9 C         139.6390  145.9571  155.7073 C.3     1  UNL1        0.1595
     10 O         138.6221  145.3661  154.7762 O.3     1  UNL1       -0.3508
     11 C         137.9295  144.0855  155.1372 C.3     1  UNL1        0.1595
     12 C         138.2537  143.3959  156.4292 C.3     1  UNL1        0.1046
     13 C         141.8312  143.8706  161.8801 C.ar    1  UNL1       -0.0220
     14 C         143.2939  143.5460  161.8093 C.ar    1  UNL1       -0.0043
     15 C         144.2501  144.1776  162.7772 C.ar    1  UNL1       -0.0003
     16 C         143.7435  145.1338  163.8159 C.ar    1  UNL1       -0.0000
     17 C         142.2808  145.4585  163.8868 C.ar    1  UNL1       -0.0003
     18 C         141.3247  144.8269  162.9188 C.ar    1  UNL1       -0.0043
     19 O         141.6236  140.1638  162.5658 O.2     1  UNL1       -0.2751
     20 C         140.5673  141.2282  162.5283 C.2     1  UNL1        0.2227
     21 N         139.8352  141.6029  163.7827 N.am    1  UNL1       -0.2986
     22 H         139.1420  142.3015  163.7581 H       1  UNL1        0.1500
     23 C         140.1594  140.9133  165.0747 C.3     1  UNL1        0.1169
     24 C         139.4078  139.6783  165.4748 C.ar    1  UNL1       -0.0003
     25 C         138.4228  139.7328  166.6047 C.ar    1  UNL1       -0.0024
     26 C         137.6713  138.4979  167.0048 C.ar    1  UNL1       -0.0003
     27 C         137.9048  137.2084  166.2749 C.ar    1  UNL1       -0.0000
     28 C         138.8899  137.1538  165.1451 C.ar    1  UNL1       -0.0003
     29 C         139.6414  138.3888  164.7450 C.ar    1  UNL1       -0.0024
     30 C         141.2351  141.4585  165.9666 C.ar    1  UNL1       -0.0003
     31 C         142.5160  141.9656  165.3731 C.ar    1  UNL1       -0.0024
     32 C         143.5917  142.5109  166.2651 C.ar    1  UNL1       -0.0003
     33 C         143.3866  142.5491  167.7504 C.ar    1  UNL1       -0.0000
     34 C         142.1057  142.0420  168.3439 C.ar    1  UNL1       -0.0003
     35 C         141.0300  141.4967  167.4521 C.ar    1  UNL1       -0.0024
@<TRIPOS>BOND
     1    19    20    2
     2    20    21   am
     3    21    23    1
     4    23    24    1
     5    24    25   ar
     6    25    26   ar
     7    26    27   ar
     8    27    28   ar
     9    28    29   ar
    10    23    30    1
    11    30    31   ar
    12    31    32   ar
    13    32    33   ar
    14    33    34   ar
    15    34    35   ar
    16     1    20    1
    17     1     2    1
    18     2     3    1
    19     3     4    1
    20     4     7    1
    21     7     8    1
    22     8     9    1
    23     9    10    1
    24    10    11    1
    25    11    12    1
    26     4     5    1
    27     5     6    1
    28     6    13    1
    29    13    14   ar
    30    14    15   ar
    31    15    16   ar
    32    16    17   ar
    33    17    18   ar
    34    29    24   ar
    35    35    30   ar
    36     6     1    1
    37    18    13   ar
    38    12     7    1
    39    21    22    1
@<TRIPOS>MOLECULE
*****
 35 39 0 0 0
SMALL
GASTEIGER

@<TRIPOS>ATOM
      1 C         140.2376  141.9264  161.2450 C.3     1  UNL1        0.0806
      2 C         139.2796  141.2982  160.2766 C.3     1  UNL1        0.0108
      3 C         138.9555  141.9908  158.9862 C.3     1  UNL1        0.0165
      4 C         139.5893  143.3117  158.6641 C.3     1  UNL1        0.0580
      5 C         140.5472  143.9399  159.6325 C.3     1  UNL1        0.0208
      6 C         140.8713  143.2472  160.9229 C.3     1  UNL1        0.0323
      7 N         139.2652  144.0043  157.3737 N.3     1  UNL1       -0.2697
      8 C         139.9584  145.2854  157.0154 C.3     1  UNL1        0.1046
      9 C         139.6343  145.9780  155.7250 C.3     1  UNL1        0.1595
     10 O         138.6170  145.3896  154.7928 O.3     1  UNL1       -0.3508
     11 C         137.9238  144.1085  155.1511 C.3     1  UNL1        0.1595
     12 C         138.2480  143.4159  156.4416 C.3     1  UNL1        0.1046
     13 C         141.8293  143.8755  161.8913 C.ar    1  UNL1       -0.0220
     14 C         141.3254  144.8322  162.9309 C.ar    1  UNL1       -0.0043
     15 C         142.2833  145.4604  163.8992 C.ar    1  UNL1       -0.0003
     16 C         143.7451  145.1319  163.8280 C.ar    1  UNL1       -0.0000
     17 C         144.2491  144.1751  162.7884 C.ar    1  UNL1       -0.0003
     18 C         143.2911  143.5470  161.8201 C.ar    1  UNL1       -0.0043
     19 O         141.6178  140.1691  162.5705 O.2     1  UNL1       -0.2751
     20 C         140.5617  141.2338  162.5354 C.2     1  UNL1        0.2227
     21 N         139.8297  141.6058  163.7907 N.am    1  UNL1       -0.2986
     22 H         139.1366  142.3045  163.7677 H       1  UNL1        0.1500
     23 C         140.1538  140.9132  165.0812 C.3     1  UNL1        0.1169
     24 C         141.2284  141.4574  165.9752 C.ar    1  UNL1       -0.0003
     25 C         141.0236  141.4886  167.4608 C.ar    1  UNL1       -0.0024
     26 C         142.0981  142.0329  168.3547 C.ar    1  UNL1       -0.0003
     27 C         143.3775  142.5459  167.7630 C.ar    1  UNL1       -0.0000
     28 C         143.5823  142.5146  166.2775 C.ar    1  UNL1       -0.0003
     29 C         142.5078  141.9704  165.3835 C.ar    1  UNL1       -0.0024
     30 C         139.4035  139.6764  165.4776 C.ar    1  UNL1       -0.0003
     31 C         139.6353  138.3902  164.7414 C.ar    1  UNL1       -0.0024
     32 C         138.8849  137.1533  165.1379 C.ar    1  UNL1       -0.0003
     33 C         137.9027  137.2027  166.2705 C.ar    1  UNL1       -0.0000
     34 C         137.6708  138.4889  167.0067 C.ar    1  UNL1       -0.0003
     35 C         138.4212  139.7257  166.6102 C.ar    1  UNL1       -0.0024
@<TRIPOS>BOND
     1    19    20    2
     2    20    21   am
     3    21    23    1
     4    23    24    1
     5    24    25   ar
     6    25    26   ar
     7    26    27   ar
     8    27    28   ar
     9    28    29   ar
    10    23    30    1
    11    30    31   ar
    12    31    32   ar
    13    32    33   ar
    14    33    34   ar
    15    34    35   ar
    16     1    20    1
    17     1     2    1
    18     2     3    1
    19     3     4    1
    20     4     7    1
    21     7     8    1
    22     8     9    1
    23     9    10    1
    24    10    11    1
    25    11    12    1
    26     4     5    1
    27     5     6    1
    28     6    13    1
    29    13    14   ar
    30    14    15   ar
    31    15    16   ar
    32    16    17   ar
    33    17    18   ar
    34    29    24   ar
    35    35    30   ar
    36     6     1    1
    37    18    13   ar
    38    12     7    1
    39    21    22    1
@<TRIPOS>MOLECULE
*****
 35 39 0 0 0
SMALL
GASTEIGER

@<TRIPOS>ATOM
      1 C         142.4694  141.1783  162.5058 C.3     1  UNL1        0.0806
      2 C         143.8184  141.8201  162.3699 C.3     1  UNL1        0.0108
      3 C         144.4803  141.8972  161.0260 C.3     1  UNL1        0.0165
      4 C         143.7932  141.3324  159.8181 C.3     1  UNL1        0.0580
      5 C         142.4443  140.6906  159.9541 C.3     1  UNL1        0.0208
      6 C         141.7824  140.6136  161.2979 C.3     1  UNL1        0.0323
      7 N         144.4551  141.4094  158.4742 N.3     1  UNL1       -0.2697
      8 C         144.0767  140.4385  157.3951 C.3     1  UNL1        0.1046
      9 C         144.7386  140.5156  156.0512 C.3     1  UNL1        0.1595
     10 O         145.7789  141.5634  155.7865 O.3     1  UNL1       -0.3508
     11 C         146.1571  142.5342  156.8656 C.3     1  UNL1        0.1595
     12 C         145.4952  142.4572  158.2094 C.3     1  UNL1        0.1046
     13 C         140.4334  139.9717  161.4339 C.ar    1  UNL1       -0.0220
     14 C         139.1909  140.7987  161.2844 C.ar    1  UNL1       -0.0043
     15 C         137.8420  140.1568  161.4203 C.ar    1  UNL1       -0.0003
     16 C         137.7356  138.6881  161.7057 C.ar    1  UNL1       -0.0000
     17 C         138.9781  137.8612  161.8552 C.ar    1  UNL1       -0.0003
     18 C         140.3270  138.5030  161.7193 C.ar    1  UNL1       -0.0043
     19 O         140.7419  142.0905  164.2187 O.2     1  UNL1       -0.2751
     20 C         141.8075  141.1013  163.8497 C.2     1  UNL1        0.2227
     21 N         142.2111  140.0351  164.8245 N.am    1  UNL1       -0.2986
     22 H         142.9104  139.3858  164.5823 H       1  UNL1        0.1500
     23 C         141.5492  139.9581  166.1683 C.3     1  UNL1        0.1169
     24 C         140.2223  139.2734  166.3127 C.ar    1  UNL1       -0.0003
     25 C         139.2602  139.7185  167.3739 C.ar    1  UNL1       -0.0024
     26 C         137.9335  139.0339  167.5182 C.ar    1  UNL1       -0.0003
     27 C         137.5688  137.9041  166.6014 C.ar    1  UNL1       -0.0000
     28 C         138.5309  137.4590  165.5402 C.ar    1  UNL1       -0.0003
     29 C         139.8576  138.1437  165.3958 C.ar    1  UNL1       -0.0024
     30 C         142.2141  140.5657  167.3678 C.ar    1  UNL1       -0.0003
     31 C         142.3266  139.7807  168.6410 C.ar    1  UNL1       -0.0024
     32 C         142.9915  140.3883  169.8405 C.ar    1  UNL1       -0.0003
     33 C         143.5439  141.7809  169.7667 C.ar    1  UNL1       -0.0000
     34 C         143.4314  142.5659  168.4935 C.ar    1  UNL1       -0.0003
     35 C         142.7665  141.9583  167.2940 C.ar    1  UNL1       -0.0024
@<TRIPOS>BOND
     1    19    20    2
     2    20    21   am
     3    21    23    1
     4    23    24    1
     5    24    25   ar
     6    25    26   ar
     7    26    27   ar
     8    27    28   ar
     9    28    29   ar
    10    23    30    1
    11    30    31   ar
    12    31    32   ar
    13    32    33   ar
    14    33    34   ar
    15    34    35   ar
    16     1    20    1
    17     1     2    1
    18     2     3    1
    19     3     4    1
    20     4     7    1
    21     7     8    1
    22     8     9    1
    23     9    10    1
    24    10    11    1
    25    11    12    1
    26     4     5    1
    27     5     6    1
    28     6    13    1
    29    13    14   ar
    30    14    15   ar
    31    15    16   ar
    32    16    17   ar
    33    17    18   ar
    34    29    24   ar
    35    35    30   ar
    36     6     1    1
    37    18    13   ar
    38    12     7    1
    39    21    22    1
@<TRIPOS>MOLECULE
*****
 35 39 0 0 0
SMALL
GASTEIGER

@<TRIPOS>ATOM
      1 C         142.4559  141.1722  162.5268 C.3     1  UNL1        0.0806
      2 C         143.8064  141.8107  162.3905 C.3     1  UNL1        0.0108
      3 C         144.4661  141.8903  161.0457 C.3     1  UNL1        0.0165
      4 C         143.7753  141.3313  159.8372 C.3     1  UNL1        0.0580
      5 C         142.4248  140.6928  159.9735 C.3     1  UNL1        0.0208
      6 C         141.7652  140.6133  161.3183 C.3     1  UNL1        0.0323
      7 N         144.4350  141.4109  158.4924 N.3     1  UNL1       -0.2697
      8 C         144.0769  140.4232  157.4218 C.3     1  UNL1        0.1046
      9 C         144.7366  140.5028  156.0770 C.3     1  UNL1        0.1595
     10 O         145.7543  141.5701  155.8028 O.3     1  UNL1       -0.3508
     11 C         146.1123  142.5578  156.8734 C.3     1  UNL1        0.1595
     12 C         145.4527  142.4782  158.2182 C.3     1  UNL1        0.1046
     13 C         140.4147  139.9747  161.4546 C.ar    1  UNL1       -0.0220
     14 C         139.1744  140.8078  161.3220 C.ar    1  UNL1       -0.0043
     15 C         137.8240  140.1693  161.4583 C.ar    1  UNL1       -0.0003
     16 C         137.7138  138.6977  161.7272 C.ar    1  UNL1       -0.0000
     17 C         138.9541  137.8646  161.8598 C.ar    1  UNL1       -0.0003
     18 C         140.3045  138.5031  161.7235 C.ar    1  UNL1       -0.0043
     19 O         140.7174  142.0687  164.2367 O.2     1  UNL1       -0.2751
     20 C         141.7962  141.0926  163.8716 C.2     1  UNL1        0.2227
     21 N         142.2154  140.0369  164.8513 N.am    1  UNL1       -0.2986
     22 H         142.9234  139.3962  164.6117 H       1  UNL1        0.1500
     23 C         141.5557  139.9573  166.1961 C.3     1  UNL1        0.1169
     24 C         142.2241  140.5600  167.3962 C.ar    1  UNL1       -0.0003
     25 C         142.7580  141.9603  167.3331 C.ar    1  UNL1       -0.0024
     26 C         143.4263  142.5629  168.5331 C.ar    1  UNL1       -0.0003
     27 C         143.5607  141.7652  169.7963 C.ar    1  UNL1       -0.0000
     28 C         143.0268  140.3649  169.8594 C.ar    1  UNL1       -0.0003
     29 C         142.3585  139.7623  168.6594 C.ar    1  UNL1       -0.0024
     30 C         140.2277  139.2751  166.3409 C.ar    1  UNL1       -0.0003
     31 C         139.2684  139.7193  167.4050 C.ar    1  UNL1       -0.0024
     32 C         137.9403  139.0370  167.5497 C.ar    1  UNL1       -0.0003
     33 C         137.5717  137.9106  166.6303 C.ar    1  UNL1       -0.0000
     34 C         138.5310  137.4664  165.5662 C.ar    1  UNL1       -0.0003
     35 C         139.8590  138.1486  165.4214 C.ar    1  UNL1       -0.0024
@<TRIPOS>BOND
     1    19    20    2
     2    20    21   am
     3    21    23    1
     4    23    24    1
     5    24    25   ar
     6    25    26   ar
     7    26    27   ar
     8    27    28   ar
     9    28    29   ar
    10    23    30    1
    11    30    31   ar
    12    31    32   ar
    13    32    33   ar
    14    33    34   ar
    15    34    35   ar
    16     1    20    1
    17     1     2    1
    18     2     3    1
    19     3     4    1
    20     4     7    1
    21     7     8    1
    22     8     9    1
    23     9    10    1
    24    10    11    1
    25    11    12    1
    26     4     5    1
    27     5     6    1
    28     6    13    1
    29    13    14   ar
    30    14    15   ar
    31    15    16   ar
    32    16    17   ar
    33    17    18   ar
    34    29    24   ar
    35    35    30   ar
    36     6     1    1
    37    18    13   ar
    38    12     7    1
    39    21    22    1
@<TRIPOS>MOLECULE
*****
 35 39 0 0 0
SMALL
GASTEIGER

@<TRIPOS>ATOM
      1 C         141.7658  141.3577  160.5531 C.3     1  UNL1        0.0806
      2 C         141.7927  140.3375  159.4537 C.3     1  UNL1        0.0108
      3 C         142.8821  140.3737  158.4233 C.3     1  UNL1        0.0165
      4 C         143.9448  141.4302  158.4923 C.3     1  UNL1        0.0580
      5 C         143.9179  142.4504  159.5916 C.3     1  UNL1        0.0208
      6 C         142.8284  142.4141  160.6220 C.3     1  UNL1        0.0323
      7 N         145.0343  141.4665  157.4619 N.3     1  UNL1       -0.2697
      8 C         145.0263  140.4855  156.3271 C.3     1  UNL1        0.1046
      9 C         146.1158  140.5217  155.2967 C.3     1  UNL1        0.1595
     10 O         147.2132  141.5391  155.4011 O.3     1  UNL1       -0.3508
     11 C         147.2211  142.5200  156.5358 C.3     1  UNL1        0.1595
     12 C         146.1316  142.4838  157.5662 C.3     1  UNL1        0.1046
     13 C         142.8016  143.4343  161.7213 C.ar    1  UNL1       -0.0220
     14 C         143.9136  143.4828  162.7268 C.ar    1  UNL1       -0.0043
     15 C         143.8867  144.5030  163.8261 C.ar    1  UNL1       -0.0003
     16 C         142.7478  145.4747  163.9199 C.ar    1  UNL1       -0.0000
     17 C         141.6359  145.4262  162.9144 C.ar    1  UNL1       -0.0003
     18 C         141.6627  144.4060  161.8151 C.ar    1  UNL1       -0.0043
     19 O         139.2417  141.4432  161.1626 O.2     1  UNL1       -0.2751
     20 C         140.6763  141.3214  161.5835 C.2     1  UNL1        0.2227
     21 N         141.0215  141.1634  163.0346 N.am    1  UNL1       -0.2986
     22 H         141.9630  141.0834  163.3108 H       1  UNL1        0.1500
     23 C         139.9320  141.1271  164.0650 C.3     1  UNL1        0.1169
     24 C         139.4343  139.8107  164.5843 C.ar    1  UNL1       -0.0003
     25 C         138.5779  139.7653  165.8149 C.ar    1  UNL1       -0.0024
     26 C         138.0804  138.4490  166.3342 C.ar    1  UNL1       -0.0003
     27 C         138.4392  137.1781  165.6228 C.ar    1  UNL1       -0.0000
     28 C         139.2956  137.2235  164.3922 C.ar    1  UNL1       -0.0003
     29 C         139.7932  138.5398  163.8729 C.ar    1  UNL1       -0.0024
     30 C         139.3401  142.4071  164.5761 C.ar    1  UNL1       -0.0003
     31 C         140.0695  143.2094  165.6126 C.ar    1  UNL1       -0.0024
     32 C         139.4776  144.4894  166.1237 C.ar    1  UNL1       -0.0003
     33 C         138.1563  144.9672  165.5983 C.ar    1  UNL1       -0.0000
     34 C         137.4270  144.1649  164.5617 C.ar    1  UNL1       -0.0003
     35 C         138.0188  142.8849  164.0507 C.ar    1  UNL1       -0.0024
@<TRIPOS>BOND
     1    19    20    2
     2    20    21   am
     3    21    23    1
     4    23    24    1
     5    24    25   ar
     6    25    26   ar
     7    26    27   ar
     8    27    28   ar
     9    28    29   ar
    10    23    30    1
    11    30    31   ar
    12    31    32   ar
    13    32    33   ar
    14    33    34   ar
    15    34    35   ar
    16     1    20    1
    17     1     2    1
    18     2     3    1
    19     3     4    1
    20     4     7    1
    21     7     8    1
    22     8     9    1
    23     9    10    1
    24    10    11    1
    25    11    12    1
    26     4     5    1
    27     5     6    1
    28     6    13    1
    29    13    14   ar
    30    14    15   ar
    31    15    16   ar
    32    16    17   ar
    33    17    18   ar
    34    29    24   ar
    35    35    30   ar
    36     6     1    1
    37    18    13   ar
    38    12     7    1
    39    21    22    1
@<TRIPOS>MOLECULE
*****
 35 39 0 0 0
SMALL
GASTEIGER

@<TRIPOS>ATOM
      1 C         141.6906  141.3525  160.6176 C.3     1  UNL1        0.0806
      2 C         141.7043  140.3134  159.5358 C.3     1  UNL1        0.0108
      3 C         142.7813  140.3317  158.4919 C.3     1  UNL1        0.0165
      4 C         143.8446  141.3892  158.5298 C.3     1  UNL1        0.0580
      5 C         143.8308  142.4282  159.6115 C.3     1  UNL1        0.0208
      6 C         142.7538  142.4099  160.6554 C.3     1  UNL1        0.0323
      7 N         144.9216  141.4075  157.4859 N.3     1  UNL1       -0.2697
      8 C         146.0200  142.4264  157.5594 C.3     1  UNL1        0.1046
      9 C         147.0971  142.4447  156.5155 C.3     1  UNL1        0.1595
     10 O         147.0756  141.4441  155.3981 O.3     1  UNL1       -0.3508
     11 C         145.9772  140.4253  155.3246 C.3     1  UNL1        0.1595
     12 C         144.9002  140.4070  156.3685 C.3     1  UNL1        0.1046
     13 C         142.7401  143.4490  161.7371 C.ar    1  UNL1       -0.0220
     14 C         143.8979  143.5613  162.6840 C.ar    1  UNL1       -0.0043
     15 C         143.8842  144.6003  163.7657 C.ar    1  UNL1       -0.0003
     16 C         142.7125  145.5272  163.9005 C.ar    1  UNL1       -0.0000
     17 C         141.5546  145.4149  162.9536 C.ar    1  UNL1       -0.0003
     18 C         141.5684  144.3759  161.8719 C.ar    1  UNL1       -0.0043
     19 O         139.1797  141.5225  161.2631 O.2     1  UNL1       -0.2751
     20 C         140.6136  141.3342  161.6615 C.2     1  UNL1        0.2227
     21 N         140.9704  141.1276  163.1037 N.am    1  UNL1       -0.2986
     22 H         141.9114  141.0040  163.3651 H       1  UNL1        0.1500
     23 C         139.8934  141.1092  164.1476 C.3     1  UNL1        0.1169
     24 C         139.3250  142.3988  164.6614 C.ar    1  UNL1       -0.0003
     25 C         138.0245  142.9138  164.1198 C.ar    1  UNL1       -0.0024
     26 C         137.4561  144.2033  164.6337 C.ar    1  UNL1       -0.0003
     27 C         138.1883  144.9778  165.6892 C.ar    1  UNL1       -0.0000
     28 C         139.4888  144.4628  166.2309 C.ar    1  UNL1       -0.0003
     29 C         140.0571  143.1733  165.7170 C.ar    1  UNL1       -0.0024
     30 C         139.3847  139.8015  164.6776 C.ar    1  UNL1       -0.0003
     31 C         139.7352  138.5215  163.9782 C.ar    1  UNL1       -0.0024
     32 C         139.2265  137.2137  164.5083 C.ar    1  UNL1       -0.0003
     33 C         138.3675  137.1858  165.7376 C.ar    1  UNL1       -0.0000
     34 C         138.0171  138.4657  166.4369 C.ar    1  UNL1       -0.0003
     35 C         138.5257  139.7735  165.9069 C.ar    1  UNL1       -0.0024
@<TRIPOS>BOND
     1    19    20    2
     2    20    21   am
     3    21    23    1
     4    23    24    1
     5    24    25   ar
     6    25    26   ar
     7    26    27   ar
     8    27    28   ar
     9    28    29   ar
    10    23    30    1
    11    30    31   ar
    12    31    32   ar
    13    32    33   ar
    14    33    34   ar
    15    34    35   ar
    16     1    20    1
    17     1     2    1
    18     2     3    1
    19     3     4    1
    20     4     7    1
    21     7     8    1
    22     8     9    1
    23     9    10    1
    24    10    11    1
    25    11    12    1
    26     4     5    1
    27     5     6    1
    28     6    13    1
    29    13    14   ar
    30    14    15   ar
    31    15    16   ar
    32    16    17   ar
    33    17    18   ar
    34    29    24   ar
    35    35    30   ar
    36     6     1    1
    37    18    13   ar
    38    12     7    1
    39    21    22    1
@<TRIPOS>MOLECULE
*****
 35 39 0 0 0
SMALL
GASTEIGER

@<TRIPOS>ATOM
      1 C         141.8250  141.9206  162.3796 C.3     1  UNL1        0.0806
      2 C         142.8420  143.0069  162.1903 C.3     1  UNL1        0.0108
      3 C         142.9967  143.6642  160.8509 C.3     1  UNL1        0.0165
      4 C         142.1344  143.2352  159.7008 C.3     1  UNL1        0.0580
      5 C         141.1175  142.1489  159.8902 C.3     1  UNL1        0.0208
      6 C         140.9628  141.4916  161.2296 C.3     1  UNL1        0.0323
      7 N         142.2892  143.8925  158.3614 N.3     1  UNL1       -0.2697
      8 C         141.8268  145.3054  158.1615 C.3     1  UNL1        0.1046
      9 C         141.9815  145.9627  156.8220 C.3     1  UNL1        0.1595
     10 O         142.5986  145.2071  155.6826 O.3     1  UNL1       -0.3508
     11 C         143.0609  143.7942  155.8826 C.3     1  UNL1        0.1595
     12 C         142.9062  143.1369  157.2220 C.3     1  UNL1        0.1046
     13 C         139.9458  140.4053  161.4190 C.ar    1  UNL1       -0.0220
     14 C         138.5241  140.7571  161.7425 C.ar    1  UNL1       -0.0043
     15 C         137.5072  139.6708  161.9318 C.ar    1  UNL1       -0.0003
     16 C         137.9121  138.2327  161.7976 C.ar    1  UNL1       -0.0000
     17 C         139.3339  137.8810  161.4741 C.ar    1  UNL1       -0.0003
     18 C         140.3507  138.9672  161.2848 C.ar    1  UNL1       -0.0043
     19 O         142.6577  140.2252  164.1636 O.2     1  UNL1       -0.2751
     20 C         141.6703  141.2633  163.7190 C.2     1  UNL1        0.2227
     21 N         140.5282  141.6439  164.6138 N.am    1  UNL1       -0.2986
     22 H         139.8802  142.3252  164.3220 H       1  UNL1        0.1500
     23 C         140.3735  140.9866  165.9533 C.3     1  UNL1        0.1169
     24 C         139.5393  139.7473  166.0886 C.ar    1  UNL1       -0.0003
     25 C         139.7568  138.5915  165.1576 C.ar    1  UNL1       -0.0024
     26 C         138.9226  137.3522  165.2930 C.ar    1  UNL1       -0.0003
     27 C         137.8711  137.2687  166.3594 C.ar    1  UNL1       -0.0000
     28 C         137.6536  138.4245  167.2904 C.ar    1  UNL1       -0.0003
     29 C         138.4878  139.6638  167.1550 C.ar    1  UNL1       -0.0024
     30 C         141.0529  141.5686  167.1573 C.ar    1  UNL1       -0.0003
     31 C         142.4056  141.0689  167.5699 C.ar    1  UNL1       -0.0024
     32 C         143.0850  141.6510  168.7740 C.ar    1  UNL1       -0.0003
     33 C         142.4116  142.7327  169.5654 C.ar    1  UNL1       -0.0000
     34 C         141.0588  143.2324  169.1527 C.ar    1  UNL1       -0.0003
     35 C         140.3794  142.6504  167.9487 C.ar    1  UNL1       -0.0024
@<TRIPOS>BOND
     1    19    20    2
     2    20    21   am
     3    21    23    1
     4    23    24    1
     5    24    25   ar
     6    25    26   ar
     7    26    27   ar
     8    27    28   ar
     9    28    29   ar
    10    23    30    1
    11    30    31   ar
    12    31    32   ar
    13    32    33   ar
    14    33    34   ar
    15    34    35   ar
    16     1    20    1
    17     1     2    1
    18     2     3    1
    19     3     4    1
    20     4     7    1
    21     7     8    1
    22     8     9    1
    23     9    10    1
    24    10    11    1
    25    11    12    1
    26     4     5    1
    27     5     6    1
    28     6    13    1
    29    13    14   ar
    30    14    15   ar
    31    15    16   ar
    32    16    17   ar
    33    17    18   ar
    34    29    24   ar
    35    35    30   ar
    36     6     1    1
    37    18    13   ar
    38    12     7    1
    39    21    22    1
