@<TRIPOS>MOLECULE
*****
 35 39 0 0 0
SMALL
GASTEIGER

@<TRIPOS>ATOM
      1 N         141.7956  140.8003  161.2619 N.3     1  UNL1       -0.2689
      2 C         141.1302  141.6377  162.3134 C.3     1  UNL1        0.0724
      3 C         141.2983  141.2935  163.7637 C.3     1  UNL1        0.0175
      4 C         142.1319  140.1119  164.1623 C.3     1  UNL1        0.0060
      5 C         142.7973  139.2745  163.1108 C.3     1  UNL1        0.0175
      6 C         142.6292  139.6187  161.6605 C.3     1  UNL1        0.0724
      7 C         141.4665  140.9494  165.2140 C.3     1  UNL1        0.0217
      8 C         141.6346  140.6052  166.6642 C.3     1  UNL1        0.0938
      9 N         142.4682  139.4235  167.0629 N.am    1  UNL1       -0.2748
     10 C         142.6363  139.0794  168.5132 C.2     1  UNL1        0.2669
     11 O         143.4699  137.8977  168.9119 O.2     1  UNL1       -0.2683
     12 C         143.1336  138.5861  166.0113 C.3     1  UNL1        0.0938
     13 C         142.9655  138.9303  164.5610 C.3     1  UNL1        0.0217
     14 C         141.9709  139.9168  169.5648 C.ar    1  UNL1        0.1380
     15 C         142.6783  141.1128  170.1298 C.ar    1  UNL1        0.0445
     16 C         142.0129  141.9502  171.1814 C.ar    1  UNL1        0.1024
     17 N         140.6399  141.5917  171.6680 N.ar    1  UNL1       -0.2224
     18 C         139.9325  140.3958  171.1029 C.ar    1  UNL1        0.1990
     19 N         140.5980  139.5583  170.0513 N.ar    1  UNL1       -0.2193
     20 C         141.6275  141.1445  159.8115 C.3     1  UNL1        0.1022
     21 C         143.7929  142.4257  159.1640 C.ar    1  UNL1        0.1427
     22 C         144.9986  142.5777  158.2846 C.ar    1  UNL1        0.0372
     23 C         145.2443  141.6006  157.1733 C.ar    1  UNL1        0.0031
     24 C         144.2845  140.4715  156.9415 C.ar    1  UNL1       -0.0001
     25 C         143.0789  140.3194  157.8209 C.ar    1  UNL1        0.0001
     26 C         142.8331  141.2965  158.9322 C.ar    1  UNL1        0.0284
     27 O         143.5472  143.4028  160.2752 O.3     1  UNL1       -0.4507
     28 C         143.6097  143.9404  162.8163 C.ar    1  UNL1        0.1730
     29 C         144.1468  143.6652  164.1895 C.ar    1  UNL1        0.0401
     30 C         145.1586  142.5770  164.3949 C.ar    1  UNL1        0.0033
     31 C         145.6332  141.7640  163.2270 C.ar    1  UNL1        0.0033
     32 C         145.0961  142.0392  161.8538 C.ar    1  UNL1        0.0406
     33 C         144.0843  143.1275  161.6485 C.ar    1  UNL1        0.1789
     34 C         141.4293  145.1519  163.5432 C.3     1  UNL1        0.2526
     35 O         142.5979  145.0287  162.6109 O.3     1  UNL1       -0.4684
@<TRIPOS>BOND
     1    34    35    1
     2    35    28    1
     3    28    29   ar
     4    29    30   ar
     5    30    31   ar
     6    31    32   ar
     7    32    33   ar
     8    33    27    1
     9    27    21    1
    10    21    22   ar
    11    22    23   ar
    12    23    24   ar
    13    24    25   ar
    14    25    26   ar
    15    26    20    1
    16    20     1    1
    17     1     2    1
    18     2     3    1
    19     3     4    1
    20     4     5    1
    21     5     6    1
    22     4     7    1
    23     7     8    1
    24     8     9    1
    25     9    10   am
    26    10    11    2
    27    10    14    1
    28    14    15   ar
    29    15    16   ar
    30    16    17   ar
    31    17    18   ar
    32    18    19   ar
    33     9    12    1
    34    12    13    1
    35    33    28   ar
    36    26    21   ar
    37     6     1    1
    38    19    14   ar
    39    13     4    1
@<TRIPOS>MOLECULE
*****
 35 39 0 0 0
SMALL
GASTEIGER

@<TRIPOS>ATOM
      1 N         142.6819  139.5284  166.2876 N.3     1  UNL1       -0.2689
      2 C         141.9408  138.5077  165.4760 C.3     1  UNL1        0.0724
      3 C         142.0573  138.5101  163.9805 C.3     1  UNL1        0.0175
      4 C         142.9149  139.5333  163.2967 C.3     1  UNL1        0.0060
      5 C         143.6559  140.5541  164.1083 C.3     1  UNL1        0.0175
      6 C         143.5395  140.5516  165.6037 C.3     1  UNL1        0.0724
      7 C         142.1738  138.5125  162.4850 C.3     1  UNL1        0.0217
      8 C         142.2902  138.5149  160.9896 C.3     1  UNL1        0.0938
      9 N         143.1478  139.5381  160.3057 N.am    1  UNL1       -0.2748
     10 C         143.2643  139.5405  158.8102 C.2     1  UNL1        0.2669
     11 O         144.1219  140.5637  158.1264 O.2     1  UNL1       -0.2683
     12 C         143.8889  140.5589  161.1173 C.3     1  UNL1        0.0938
     13 C         143.7724  140.5565  162.6129 C.3     1  UNL1        0.0217
     14 C         142.5232  138.5197  157.9986 C.ar    1  UNL1        0.1380
     15 C         141.1045  138.7766  157.5848 C.ar    1  UNL1        0.0445
     16 C         140.3634  137.7558  156.7732 C.ar    1  UNL1        0.1024
     17 N         141.0410  136.4781  156.3753 N.ar    1  UNL1       -0.2224
     18 C         142.4598  136.2212  156.7891 C.ar    1  UNL1        0.1990
     19 N         143.2008  137.2420  157.6008 N.ar    1  UNL1       -0.2193
     20 C         142.5654  139.5260  167.7831 C.3     1  UNL1        0.1022
     21 C         140.7643  141.2752  168.4510 C.ar    1  UNL1        0.1427
     22 C         140.3785  142.5309  169.1753 C.ar    1  UNL1        0.0372
     23 C         141.4080  143.2929  169.9558 C.ar    1  UNL1        0.0031
     24 C         142.8234  142.7994  170.0121 C.ar    1  UNL1       -0.0001
     25 C         143.2092  141.5438  169.2879 C.ar    1  UNL1        0.0001
     26 C         142.1796  140.7817  168.5073 C.ar    1  UNL1        0.0284
     27 O         139.7347  140.5132  167.6704 O.3     1  UNL1       -0.4507
     28 C         138.3867  140.1507  165.4792 C.ar    1  UNL1        0.1730
     29 C         138.0911  140.5294  164.0582 C.ar    1  UNL1        0.0401
     30 C         138.8478  141.6491  163.4074 C.ar    1  UNL1        0.0033
     31 C         139.9003  142.3902  164.1777 C.ar    1  UNL1        0.0033
     32 C         140.1959  142.0116  165.5987 C.ar    1  UNL1        0.0406
     33 C         139.4391  140.8918  166.2494 C.ar    1  UNL1        0.1789
     34 C         138.1931  137.6408  166.1216 C.3     1  UNL1        0.2526
     35 O         137.6299  139.0310  166.1300 O.3     1  UNL1       -0.4684
@<TRIPOS>BOND
     1    34    35    1
     2    35    28    1
     3    28    29   ar
     4    29    30   ar
     5    30    31   ar
     6    31    32   ar
     7    32    33   ar
     8    33    27    1
     9    27    21    1
    10    21    22   ar
    11    22    23   ar
    12    23    24   ar
    13    24    25   ar
    14    25    26   ar
    15    26    20    1
    16    20     1    1
    17     1     2    1
    18     2     3    1
    19     3     4    1
    20     4     5    1
    21     5     6    1
    22     4     7    1
    23     7     8    1
    24     8     9    1
    25     9    10   am
    26    10    11    2
    27    10    14    1
    28    14    15   ar
    29    15    16   ar
    30    16    17   ar
    31    17    18   ar
    32    18    19   ar
    33     9    12    1
    34    12    13    1
    35    33    28   ar
    36    26    21   ar
    37     6     1    1
    38    19    14   ar
    39    13     4    1
@<TRIPOS>MOLECULE
*****
 35 39 0 0 0
SMALL
GASTEIGER

@<TRIPOS>ATOM
      1 N         142.2572  139.2617  165.9494 N.3     1  UNL1       -0.2689
      2 C         143.3827  139.0195  164.9879 C.3     1  UNL1        0.0724
      3 C         143.0962  138.8488  163.5255 C.3     1  UNL1        0.0175
      4 C         141.6841  138.9204  163.0245 C.3     1  UNL1        0.0060
      5 C         140.5586  139.1626  163.9860 C.3     1  UNL1        0.0175
      6 C         140.8451  139.3333  165.4484 C.3     1  UNL1        0.0724
      7 C         142.8096  138.6781  162.0630 C.3     1  UNL1        0.0217
      8 C         142.5231  138.5075  160.6005 C.3     1  UNL1        0.0938
      9 N         141.1110  138.5790  160.0996 N.am    1  UNL1       -0.2748
     10 C         140.8245  138.4083  158.6371 C.2     1  UNL1        0.2669
     11 O         139.4124  138.4798  158.1362 O.2     1  UNL1       -0.2683
     12 C         139.9855  138.8212  161.0611 C.3     1  UNL1        0.0938
     13 C         140.2720  138.9919  162.5236 C.3     1  UNL1        0.0217
     14 C         141.9500  138.1661  157.6756 C.ar    1  UNL1        0.1380
     15 C         142.6827  139.3269  157.0709 C.ar    1  UNL1        0.0445
     16 C         143.8082  139.0846  156.1094 C.ar    1  UNL1        0.1024
     17 N         144.2011  137.6816  155.7526 N.ar    1  UNL1       -0.2224
     18 C         143.4683  136.5208  156.3573 C.ar    1  UNL1        0.1990
     19 N         142.3427  136.7631  157.3189 N.ar    1  UNL1       -0.2193
     20 C         142.5438  139.4324  167.4119 C.3     1  UNL1        0.1022
     21 C         141.8812  141.8715  168.0133 C.ar    1  UNL1        0.1427
     22 C         141.0695  142.8335  168.8294 C.ar    1  UNL1        0.0372
     23 C         140.1090  142.3184  169.8599 C.ar    1  UNL1        0.0031
     24 C         139.9600  140.8413  170.0744 C.ar    1  UNL1       -0.0001
     25 C         140.7716  139.8793  169.2584 C.ar    1  UNL1        0.0001
     26 C         141.7322  140.3944  168.2278 C.ar    1  UNL1        0.0284
     27 O         142.8417  142.3866  166.9828 O.3     1  UNL1       -0.4507
     28 C         143.3830  142.5177  164.4452 C.ar    1  UNL1        0.1730
     29 C         142.9299  142.7129  163.0286 C.ar    1  UNL1        0.0401
     30 C         141.4823  142.9720  162.7332 C.ar    1  UNL1        0.0033
     31 C         140.4878  143.0361  163.8544 C.ar    1  UNL1        0.0033
     32 C         140.9409  142.8409  165.2709 C.ar    1  UNL1        0.0406
     33 C         142.3886  142.5817  165.5663 C.ar    1  UNL1        0.1789
     34 C         145.7110  141.6422  163.6941 C.3     1  UNL1        0.2526
     35 O         144.8307  142.2585  164.7405 O.3     1  UNL1       -0.4684
@<TRIPOS>BOND
     1    34    35    1
     2    35    28    1
     3    28    29   ar
     4    29    30   ar
     5    30    31   ar
     6    31    32   ar
     7    32    33   ar
     8    33    27    1
     9    27    21    1
    10    21    22   ar
    11    22    23   ar
    12    23    24   ar
    13    24    25   ar
    14    25    26   ar
    15    26    20    1
    16    20     1    1
    17     1     2    1
    18     2     3    1
    19     3     4    1
    20     4     5    1
    21     5     6    1
    22     4     7    1
    23     7     8    1
    24     8     9    1
    25     9    10   am
    26    10    11    2
    27    10    14    1
    28    14    15   ar
    29    15    16   ar
    30    16    17   ar
    31    17    18   ar
    32    18    19   ar
    33     9    12    1
    34    12    13    1
    35    33    28   ar
    36    26    21   ar
    37     6     1    1
    38    19    14   ar
    39    13     4    1
@<TRIPOS>MOLECULE
*****
 35 39 0 0 0
SMALL
GASTEIGER

@<TRIPOS>ATOM
      1 N         142.4296  140.4118  160.9016 N.3     1  UNL1       -0.2689
      2 C         141.9928  141.5287  161.8025 C.3     1  UNL1        0.0724
      3 C         142.0556  141.3594  163.2916 C.3     1  UNL1        0.0175
      4 C         142.5552  140.0731  163.8797 C.3     1  UNL1        0.0060
      5 C         142.9920  138.9562  162.9788 C.3     1  UNL1        0.0175
      6 C         142.9291  139.1256  161.4898 C.3     1  UNL1        0.0724
      7 C         142.1184  141.1901  164.7807 C.3     1  UNL1        0.0217
      8 C         142.1812  141.0207  166.2698 C.3     1  UNL1        0.0938
      9 N         142.6808  139.7344  166.8579 N.am    1  UNL1       -0.2748
     10 C         142.7436  139.5651  168.3471 C.2     1  UNL1        0.2669
     11 O         143.2432  138.2788  168.9352 O.2     1  UNL1       -0.2683
     12 C         143.1176  138.6175  165.9570 C.3     1  UNL1        0.0938
     13 C         143.0548  138.7868  164.4679 C.3     1  UNL1        0.0217
     14 C         142.3069  140.6820  169.2480 C.ar    1  UNL1        0.1380
     15 C         143.2383  141.8223  169.5346 C.ar    1  UNL1        0.0445
     16 C         142.8015  142.9392  170.4355 C.ar    1  UNL1        0.1024
     17 N         141.4332  142.9159  171.0499 N.ar    1  UNL1       -0.2224
     18 C         140.5018  141.7756  170.7632 C.ar    1  UNL1        0.1990
     19 N         140.9386  140.6586  169.8623 N.ar    1  UNL1       -0.2193
     20 C         142.3668  140.5812  159.4125 C.3     1  UNL1        0.1022
     21 C         140.3799  139.1494  158.5450 C.ar    1  UNL1        0.1427
     22 C         139.8589  138.0364  157.6849 C.ar    1  UNL1        0.0372
     23 C         140.8035  137.2422  156.8323 C.ar    1  UNL1        0.0031
     24 C         142.2692  137.5610  156.8397 C.ar    1  UNL1       -0.0001
     25 C         142.7903  138.6740  157.6998 C.ar    1  UNL1        0.0001
     26 C         141.8456  139.4682  158.5524 C.ar    1  UNL1        0.0284
     27 O         139.4353  139.9436  159.3976 O.3     1  UNL1       -0.4507
     28 C         138.5159  140.4825  161.7670 C.ar    1  UNL1        0.1730
     29 C         138.2560  140.0677  163.1849 C.ar    1  UNL1        0.0401
     30 C         138.6555  138.6992  163.6512 C.ar    1  UNL1        0.0033
     31 C         139.3151  137.7454  162.6997 C.ar    1  UNL1        0.0033
     32 C         139.5750  138.1602  161.2818 C.ar    1  UNL1        0.0406
     33 C         139.1754  139.5288  160.8155 C.ar    1  UNL1        0.1789
     34 C         137.8805  142.9447  162.2998 C.3     1  UNL1        0.2526
     35 O         138.1163  141.8511  161.3007 O.3     1  UNL1       -0.4684
@<TRIPOS>BOND
     1    34    35    1
     2    35    28    1
     3    28    29   ar
     4    29    30   ar
     5    30    31   ar
     6    31    32   ar
     7    32    33   ar
     8    33    27    1
     9    27    21    1
    10    21    22   ar
    11    22    23   ar
    12    23    24   ar
    13    24    25   ar
    14    25    26   ar
    15    26    20    1
    16    20     1    1
    17     1     2    1
    18     2     3    1
    19     3     4    1
    20     4     5    1
    21     5     6    1
    22     4     7    1
    23     7     8    1
    24     8     9    1
    25     9    10   am
    26    10    11    2
    27    10    14    1
    28    14    15   ar
    29    15    16   ar
    30    16    17   ar
    31    17    18   ar
    32    18    19   ar
    33     9    12    1
    34    12    13    1
    35    33    28   ar
    36    26    21   ar
    37     6     1    1
    38    19    14   ar
    39    13     4    1
@<TRIPOS>MOLECULE
*****
 35 39 0 0 0
SMALL
GASTEIGER

@<TRIPOS>ATOM
      1 N         140.3803  140.0537  161.3673 N.3     1  UNL1       -0.2689
      2 C         141.3233  140.7192  162.3253 C.3     1  UNL1        0.0724
      3 C         141.0397  140.6916  163.7979 C.3     1  UNL1        0.0175
      4 C         139.8130  139.9985  164.3126 C.3     1  UNL1        0.0060
      5 C         138.8700  139.3330  163.3546 C.3     1  UNL1        0.0175
      6 C         139.1536  139.3606  161.8819 C.3     1  UNL1        0.0724
      7 C         140.7560  140.6640  165.2706 C.3     1  UNL1        0.0217
      8 C         140.4724  140.6365  166.7433 C.3     1  UNL1        0.0938
      9 N         139.2457  139.9434  167.2579 N.am    1  UNL1       -0.2748
     10 C         138.9620  139.9158  168.7307 C.2     1  UNL1        0.2669
     11 O         137.7354  139.2227  169.2453 O.2     1  UNL1       -0.2683
     12 C         138.3027  139.2779  166.3000 C.3     1  UNL1        0.0938
     13 C         138.5863  139.3054  164.8272 C.3     1  UNL1        0.0217
     14 C         139.9051  140.5813  169.6887 C.ar    1  UNL1        0.1380
     15 C         139.6050  141.9586  170.2016 C.ar    1  UNL1        0.0445
     16 C         140.5481  142.6241  171.1596 C.ar    1  UNL1        0.1024
     17 N         141.7912  141.9123  171.6047 N.ar    1  UNL1       -0.2224
     18 C         142.0912  140.5350  171.0917 C.ar    1  UNL1        0.1990
     19 N         141.1481  139.8695  170.1337 N.ar    1  UNL1       -0.2193
     20 C         140.6639  140.0812  159.8945 C.3     1  UNL1        0.1022
     21 C         139.4644  142.2229  159.0434 C.ar    1  UNL1        0.1427
     22 C         138.4989  142.8855  158.1059 C.ar    1  UNL1        0.0372
     23 C         137.7675  142.0689  157.0821 C.ar    1  UNL1        0.0031
     24 C         138.0015  140.5898  156.9958 C.ar    1  UNL1       -0.0001
     25 C         138.9670  139.9272  157.9332 C.ar    1  UNL1        0.0001
     26 C         139.6985  140.7438  158.9571 C.ar    1  UNL1        0.0284
     27 O         140.1958  143.0395  160.0672 O.3     1  UNL1       -0.4507
     28 C         140.3081  144.1012  162.4358 C.ar    1  UNL1        0.1730
     29 C         139.6724  144.3817  163.7651 C.ar    1  UNL1        0.0401
     30 C         138.2885  143.8811  164.0552 C.ar    1  UNL1        0.0033
     31 C         137.5403  143.0999  163.0159 C.ar    1  UNL1        0.0033
     32 C         138.1761  142.8194  161.6866 C.ar    1  UNL1        0.0406
     33 C         139.5600  143.3200  161.3966 C.ar    1  UNL1        0.1789
     34 C         142.5838  145.0359  163.2711 C.3     1  UNL1        0.2526
     35 O         141.6921  144.6018  162.1458 O.3     1  UNL1       -0.4684
@<TRIPOS>BOND
     1    34    35    1
     2    35    28    1
     3    28    29   ar
     4    29    30   ar
     5    30    31   ar
     6    31    32   ar
     7    32    33   ar
     8    33    27    1
     9    27    21    1
    10    21    22   ar
    11    22    23   ar
    12    23    24   ar
    13    24    25   ar
    14    25    26   ar
    15    26    20    1
    16    20     1    1
    17     1     2    1
    18     2     3    1
    19     3     4    1
    20     4     5    1
    21     5     6    1
    22     4     7    1
    23     7     8    1
    24     8     9    1
    25     9    10   am
    26    10    11    2
    27    10    14    1
    28    14    15   ar
    29    15    16   ar
    30    16    17   ar
    31    17    18   ar
    32    18    19   ar
    33     9    12    1
    34    12    13    1
    35    33    28   ar
    36    26    21   ar
    37     6     1    1
    38    19    14   ar
    39    13     4    1
@<TRIPOS>MOLECULE
*****
 35 39 0 0 0
SMALL
GASTEIGER

@<TRIPOS>ATOM
      1 N         139.6246  139.8573  166.2851 N.3     1  UNL1       -0.2689
      2 C         140.8709  139.4201  165.5741 C.3     1  UNL1        0.0724
      3 C         140.8884  139.3320  164.0768 C.3     1  UNL1        0.0175
      4 C         139.6597  139.6812  163.2905 C.3     1  UNL1        0.0060
      5 C         138.4134  140.1185  164.0015 C.3     1  UNL1        0.0175
      6 C         138.3959  140.2065  165.4988 C.3     1  UNL1        0.0724
      7 C         140.9060  139.2439  162.5795 C.3     1  UNL1        0.0217
      8 C         140.9235  139.1558  161.0822 C.3     1  UNL1        0.0938
      9 N         139.6948  139.5050  160.2959 N.am    1  UNL1       -0.2748
     10 C         139.7124  139.4170  158.7985 C.2     1  UNL1        0.2669
     11 O         138.4837  139.7662  158.0122 O.2     1  UNL1       -0.2683
     12 C         138.4485  139.9423  161.0069 C.3     1  UNL1        0.0938
     13 C         138.4309  140.0304  162.5042 C.3     1  UNL1        0.0217
     14 C         140.9587  138.9797  158.0875 C.ar    1  UNL1        0.1380
     15 C         142.0300  139.9798  157.7680 C.ar    1  UNL1        0.0445
     16 C         143.2763  139.5425  157.0570 C.ar    1  UNL1        0.1024
     17 N         143.4513  138.1051  156.6655 N.ar    1  UNL1       -0.2224
     18 C         142.3800  137.1050  156.9851 C.ar    1  UNL1        0.1990
     19 N         141.1336  137.5423  157.6961 N.ar    1  UNL1       -0.2193
     20 C         139.6070  139.9454  167.7824 C.3     1  UNL1        0.1022
     21 C         141.2775  141.8766  168.2620 C.ar    1  UNL1        0.1427
     22 C         142.4728  142.4080  168.9962 C.ar    1  UNL1        0.0372
     23 C         143.1927  141.5397  169.9849 C.ar    1  UNL1        0.0031
     24 C         142.7175  140.1399  170.2394 C.ar    1  UNL1       -0.0001
     25 C         141.5223  139.6085  169.5053 C.ar    1  UNL1        0.0001
     26 C         140.8022  140.4768  168.5166 C.ar    1  UNL1        0.0284
     27 O         140.5575  142.7449  167.2733 O.3     1  UNL1       -0.4507
     28 C         140.1689  143.3626  164.7798 C.ar    1  UNL1        0.1730
     29 C         140.6853  143.4893  163.3772 C.ar    1  UNL1        0.0401
     30 C         142.1065  143.1249  163.0654 C.ar    1  UNL1        0.0033
     31 C         143.0115  142.6339  164.1563 C.ar    1  UNL1        0.0033
     32 C         142.4952  142.5072  165.5589 C.ar    1  UNL1        0.0406
     33 C         141.0738  142.8716  165.8707 C.ar    1  UNL1        0.1789
     34 C         137.7377  143.8206  163.9864 C.3     1  UNL1        0.2526
     35 O         138.7476  143.7270  165.0915 O.3     1  UNL1       -0.4684
@<TRIPOS>BOND
     1    34    35    1
     2    35    28    1
     3    28    29   ar
     4    29    30   ar
     5    30    31   ar
     6    31    32   ar
     7    32    33   ar
     8    33    27    1
     9    27    21    1
    10    21    22   ar
    11    22    23   ar
    12    23    24   ar
    13    24    25   ar
    14    25    26   ar
    15    26    20    1
    16    20     1    1
    17     1     2    1
    18     2     3    1
    19     3     4    1
    20     4     5    1
    21     5     6    1
    22     4     7    1
    23     7     8    1
    24     8     9    1
    25     9    10   am
    26    10    11    2
    27    10    14    1
    28    14    15   ar
    29    15    16   ar
    30    16    17   ar
    31    17    18   ar
    32    18    19   ar
    33     9    12    1
    34    12    13    1
    35    33    28   ar
    36    26    21   ar
    37     6     1    1
    38    19    14   ar
    39    13     4    1
@<TRIPOS>MOLECULE
*****
 35 39 0 0 0
SMALL
GASTEIGER

@<TRIPOS>ATOM
      1 N         140.2518  144.6666  161.8604 N.3     1  UNL1       -0.2689
      2 C         140.9960  144.9800  163.1245 C.3     1  UNL1        0.0724
      3 C         140.8364  144.0978  164.3271 C.3     1  UNL1        0.0175
      4 C         139.9325  142.9023  164.2656 C.3     1  UNL1        0.0060
      5 C         139.1883  142.5889  163.0016 C.3     1  UNL1        0.0175
      6 C         139.3479  143.4710  161.7990 C.3     1  UNL1        0.0724
      7 C         140.6768  143.2156  165.5298 C.3     1  UNL1        0.0217
      8 C         140.5171  142.3335  166.7324 C.3     1  UNL1        0.0938
      9 N         139.6133  141.1379  166.6709 N.am    1  UNL1       -0.2748
     10 C         139.4537  140.2558  167.8736 C.2     1  UNL1        0.2669
     11 O         138.5499  139.0602  167.8121 O.2     1  UNL1       -0.2683
     12 C         138.8691  140.8246  165.4068 C.3     1  UNL1        0.0938
     13 C         139.0287  141.7067  164.2041 C.3     1  UNL1        0.0217
     14 C         140.1979  140.5692  169.1376 C.ar    1  UNL1        0.1380
     15 C         141.5217  139.9182  169.4097 C.ar    1  UNL1        0.0445
     16 C         142.2659  140.2316  170.6737 C.ar    1  UNL1        0.1024
     17 N         141.6864  141.1960  171.6658 N.ar    1  UNL1       -0.2224
     18 C         140.3626  141.8469  171.3938 C.ar    1  UNL1        0.1990
     19 N         139.6184  141.5335  170.1297 N.ar    1  UNL1       -0.2193
     20 C         140.4114  145.5488  160.6577 C.3     1  UNL1        0.1022
     21 C         142.1483  144.1611  159.3134 C.ar    1  UNL1        0.1427
     22 C         142.6210  143.5795  158.0140 C.ar    1  UNL1        0.0372
     23 C         141.8295  143.8040  156.7597 C.ar    1  UNL1        0.0031
     24 C         140.5653  144.6101  156.8048 C.ar    1  UNL1       -0.0001
     25 C         140.0926  145.1917  158.1041 C.ar    1  UNL1        0.0001
     26 C         140.8841  144.9672  159.3584 C.ar    1  UNL1        0.0284
     27 O         142.9397  143.9366  160.5676 O.3     1  UNL1       -0.4507
     28 C         143.5401  142.4440  162.6076 C.ar    1  UNL1        0.1730
     29 C         143.4346  141.1377  163.3373 C.ar    1  UNL1        0.0401
     30 C         142.6232  140.0177  162.7567 C.ar    1  UNL1        0.0033
     31 C         141.9172  140.2040  161.4464 C.ar    1  UNL1        0.0033
     32 C         142.0227  141.5102  160.7167 C.ar    1  UNL1        0.0406
     33 C         142.8342  142.6303  161.2973 C.ar    1  UNL1        0.1789
     34 C         144.4205  143.7476  164.6753 C.3     1  UNL1        0.2526
     35 O         144.3516  143.5640  163.1882 O.3     1  UNL1       -0.4684
@<TRIPOS>BOND
     1    34    35    1
     2    35    28    1
     3    28    29   ar
     4    29    30   ar
     5    30    31   ar
     6    31    32   ar
     7    32    33   ar
     8    33    27    1
     9    27    21    1
    10    21    22   ar
    11    22    23   ar
    12    23    24   ar
    13    24    25   ar
    14    25    26   ar
    15    26    20    1
    16    20     1    1
    17     1     2    1
    18     2     3    1
    19     3     4    1
    20     4     5    1
    21     5     6    1
    22     4     7    1
    23     7     8    1
    24     8     9    1
    25     9    10   am
    26    10    11    2
    27    10    14    1
    28    14    15   ar
    29    15    16   ar
    30    16    17   ar
    31    17    18   ar
    32    18    19   ar
    33     9    12    1
    34    12    13    1
    35    33    28   ar
    36    26    21   ar
    37     6     1    1
    38    19    14   ar
    39    13     4    1
@<TRIPOS>MOLECULE
*****
 35 39 0 0 0
SMALL
GASTEIGER

@<TRIPOS>ATOM
      1 N         141.1023  142.0684  161.1275 N.3     1  UNL1       -0.2689
      2 C         141.8476  142.6652  162.2843 C.3     1  UNL1        0.0724
      3 C         141.4950  142.2702  163.6877 C.3     1  UNL1        0.0175
      4 C         140.3969  141.2785  163.9343 C.3     1  UNL1        0.0060
      5 C         139.6515  140.6818  162.7775 C.3     1  UNL1        0.0175
      6 C         140.0042  141.0767  161.3741 C.3     1  UNL1        0.0724
      7 C         141.1423  141.8753  165.0912 C.3     1  UNL1        0.0217
      8 C         140.7896  141.4804  166.4946 C.3     1  UNL1        0.0938
      9 N         139.6916  140.4887  166.7413 N.am    1  UNL1       -0.2748
     10 C         139.3389  140.0938  168.1448 C.2     1  UNL1        0.2669
     11 O         138.2408  139.1021  168.3914 O.2     1  UNL1       -0.2683
     12 C         138.9462  139.8919  165.5845 C.3     1  UNL1        0.0938
     13 C         139.2988  140.2868  164.1809 C.3     1  UNL1        0.0217
     14 C         140.0843  140.6905  169.3016 C.ar    1  UNL1        0.1380
     15 C         141.3017  140.0027  169.8445 C.ar    1  UNL1        0.0445
     16 C         142.0471  140.5995  171.0013 C.ar    1  UNL1        0.1024
     17 N         141.5750  141.8841  171.6152 N.ar    1  UNL1       -0.2224
     18 C         140.3576  142.5720  171.0723 C.ar    1  UNL1        0.1990
     19 N         139.6122  141.9751  169.9154 N.ar    1  UNL1       -0.2193
     20 C         141.4549  142.4633  159.7240 C.3     1  UNL1        0.1022
     21 C         142.6541  140.4114  158.6744 C.ar    1  UNL1        0.1427
     22 C         142.7424  139.3672  157.6012 C.ar    1  UNL1        0.0372
     23 C         141.7199  139.3307  156.5043 C.ar    1  UNL1        0.0031
     24 C         140.6091  140.3384  156.4807 C.ar    1  UNL1       -0.0001
     25 C         140.5207  141.3826  157.5539 C.ar    1  UNL1        0.0001
     26 C         141.5433  141.4191  158.6508 C.ar    1  UNL1        0.0284
     27 O         143.6766  140.4479  159.7713 O.3     1  UNL1       -0.4507
     28 C         144.2018  140.0848  162.2897 C.ar    1  UNL1        0.1730
     29 C         143.9440  139.3640  163.5796 C.ar    1  UNL1        0.0401
     30 C         142.9033  138.2855  163.6412 C.ar    1  UNL1        0.0033
     31 C         142.1203  137.9278  162.4127 C.ar    1  UNL1        0.0033
     32 C         142.3781  138.6486  161.1227 C.ar    1  UNL1        0.0406
     33 C         143.4189  139.7271  161.0612 C.ar    1  UNL1        0.1789
     34 C         145.7280  141.8100  163.4915 C.3     1  UNL1        0.2526
     35 O         145.2426  141.1633  162.2282 O.3     1  UNL1       -0.4684
@<TRIPOS>BOND
     1    34    35    1
     2    35    28    1
     3    28    29   ar
     4    29    30   ar
     5    30    31   ar
     6    31    32   ar
     7    32    33   ar
     8    33    27    1
     9    27    21    1
    10    21    22   ar
    11    22    23   ar
    12    23    24   ar
    13    24    25   ar
    14    25    26   ar
    15    26    20    1
    16    20     1    1
    17     1     2    1
    18     2     3    1
    19     3     4    1
    20     4     5    1
    21     5     6    1
    22     4     7    1
    23     7     8    1
    24     8     9    1
    25     9    10   am
    26    10    11    2
    27    10    14    1
    28    14    15   ar
    29    15    16   ar
    30    16    17   ar
    31    17    18   ar
    32    18    19   ar
    33     9    12    1
    34    12    13    1
    35    33    28   ar
    36    26    21   ar
    37     6     1    1
    38    19    14   ar
    39    13     4    1
@<TRIPOS>MOLECULE
*****
 35 39 0 0 0
SMALL
GASTEIGER

@<TRIPOS>ATOM
      1 N         140.7738  144.5547  161.7692 N.3     1  UNL1       -0.2689
      2 C         140.2286  144.8637  163.1320 C.3     1  UNL1        0.0724
      3 C         140.5664  143.9768  164.2936 C.3     1  UNL1        0.0175
      4 C         141.4493  142.7810  164.0924 C.3     1  UNL1        0.0060
      5 C         141.9945  142.4721  162.7296 C.3     1  UNL1        0.0175
      6 C         141.6567  143.3589  161.5680 C.3     1  UNL1        0.0724
      7 C         140.9042  143.0900  165.4553 C.3     1  UNL1        0.0217
      8 C         141.2420  142.2031  166.6169 C.3     1  UNL1        0.0938
      9 N         142.1249  141.0073  166.4157 N.am    1  UNL1       -0.2748
     10 C         142.4627  140.1204  167.5774 C.2     1  UNL1        0.2669
     11 O         143.3456  138.9246  167.3761 O.2     1  UNL1       -0.2683
     12 C         142.6700  140.6984  165.0529 C.3     1  UNL1        0.0938
     13 C         142.3323  141.5852  163.8912 C.3     1  UNL1        0.0217
     14 C         141.9175  140.4294  168.9402 C.ar    1  UNL1        0.1380
     15 C         142.6281  141.4074  169.8282 C.ar    1  UNL1        0.0445
     16 C         142.0829  141.7164  171.1910 C.ar    1  UNL1        0.1024
     17 N         140.8272  141.0473  171.6659 N.ar    1  UNL1       -0.2224
     18 C         140.1166  140.0693  170.7779 C.ar    1  UNL1        0.1990
     19 N         140.6618  139.7603  169.4150 N.ar    1  UNL1       -0.2193
     20 C         140.4360  145.4416  160.6075 C.3     1  UNL1        0.1022
     21 C         139.7415  143.8457  158.6786 C.ar    1  UNL1        0.1427
     22 C         139.9246  143.3466  157.2759 C.ar    1  UNL1        0.0372
     23 C         140.9850  143.9445  156.3995 C.ar    1  UNL1        0.0031
     24 C         141.8624  145.0413  156.9258 C.ar    1  UNL1       -0.0001
     25 C         141.6794  145.5404  158.3284 C.ar    1  UNL1        0.0001
     26 C         140.6190  144.9425  159.2049 C.ar    1  UNL1        0.0284
     27 O         138.6811  143.2478  159.5549 O.3     1  UNL1       -0.4507
     28 C         138.4243  141.6692  161.6023 C.ar    1  UNL1        0.1730
     29 C         138.6513  140.3361  162.2513 C.ar    1  UNL1        0.0401
     30 C         139.3622  139.2484  161.5020 C.ar    1  UNL1        0.0033
     31 C         139.8461  139.4939  160.1035 C.ar    1  UNL1        0.0033
     32 C         139.6191  140.8270  159.4545 C.ar    1  UNL1        0.0406
     33 C         138.9081  141.9147  160.2039 C.ar    1  UNL1        0.1789
     34 C         137.2932  142.5361  163.7747 C.3     1  UNL1        0.2526
     35 O         137.7134  142.7569  162.3518 O.3     1  UNL1       -0.4684
@<TRIPOS>BOND
     1    34    35    1
     2    35    28    1
     3    28    29   ar
     4    29    30   ar
     5    30    31   ar
     6    31    32   ar
     7    32    33   ar
     8    33    27    1
     9    27    21    1
    10    21    22   ar
    11    22    23   ar
    12    23    24   ar
    13    24    25   ar
    14    25    26   ar
    15    26    20    1
    16    20     1    1
    17     1     2    1
    18     2     3    1
    19     3     4    1
    20     4     5    1
    21     5     6    1
    22     4     7    1
    23     7     8    1
    24     8     9    1
    25     9    10   am
    26    10    11    2
    27    10    14    1
    28    14    15   ar
    29    15    16   ar
    30    16    17   ar
    31    17    18   ar
    32    18    19   ar
    33     9    12    1
    34    12    13    1
    35    33    28   ar
    36    26    21   ar
    37     6     1    1
    38    19    14   ar
    39    13     4    1
