@<TRIPOS>MOLECULE
*****
 33 37 0 0 0
SMALL
GASTEIGER

@<TRIPOS>ATOM
      1 N         143.4167  143.8637  161.4421 N.pl3   1  UNL1       -0.2804
      2 H         144.1000  144.5533  161.2784 H       1  UNL1        0.1551
      3 C         143.7495  142.6606  162.2738 C.ar    1  UNL1        0.2208
      4 N         145.0796  142.5687  162.9611 N.ar    1  UNL1       -0.2111
      5 C         145.4124  141.3655  163.7927 C.ar    1  UNL1        0.1147
      6 C         144.4152  140.2544  163.9371 C.ar    1  UNL1        0.0946
      7 CL        144.7480  139.0513  164.7688 Cl      1  UNL1       -0.0790
      8 C         143.0850  140.3464  163.2498 C.ar    1  UNL1        0.0992
      9 N         142.7522  141.5495  162.4182 N.ar    1  UNL1       -0.2126
     10 C         142.0877  139.2352  163.3942 C.ar    1  UNL1        0.0572
     11 C         142.0832  137.9488  162.6228 C.ar    1  UNL1        0.1235
     12 N         140.9126  137.1340  163.0872 N.ar    1  UNL1       -0.1634
     13 N         140.1936  137.9168  164.1457 N.ar    1  UNL1       -0.2281
     14 C         138.9715  137.6149  164.9612 C.ar    1  UNL1        0.1004
     15 C         138.4756  138.6116  165.9665 C.ar    1  UNL1        0.0207
     16 C         139.2019  139.9103  166.1562 C.ar    1  UNL1        0.0031
     17 C         140.4241  140.2122  165.3407 C.ar    1  UNL1        0.0193
     18 C         140.9199  139.2155  164.3354 C.ar    1  UNL1        0.0858
     19 N         140.1539  143.9002  159.3401 N.ar    1  UNL1       -0.2503
     20 C         141.5998  143.5384  159.5086 C.ar    1  UNL1        0.1108
     21 C         142.0428  144.0163  160.8598 C.ar    1  UNL1        0.0849
     22 C         140.8705  144.6734  161.5263 C.ar    1  UNL1        0.0938
     23 C         140.8664  145.2933  162.8921 C.3     1  UNL1        0.0553
     24 N         139.7032  144.6017  160.5871 N.ar    1  UNL1       -0.1724
     25 C         137.0210  143.4719  153.2367 C.3     1  UNL1        0.0948
     26 C         136.7675  142.7445  154.5238 C.2     1  UNL1        0.2261
     27 O         135.6674  141.7283  154.6068 O.2     1  UNL1       -0.2749
     28 N         137.6141  143.0334  155.7279 N.am    1  UNL1       -0.2794
     29 C         138.7142  144.0497  155.6448 C.3     1  UNL1        0.0954
     30 C         139.5608  144.3386  156.8489 C.3     1  UNL1        0.0459
     31 C         139.3073  143.6113  158.1360 C.3     1  UNL1        0.1087
     32 C         138.2072  142.5950  158.2191 C.3     1  UNL1        0.0459
     33 C         137.3606  142.3061  157.0150 C.3     1  UNL1        0.0954
@<TRIPOS>BOND
     1    25    26    1
     2    26    27    2
     3    26    28   am
     4    28    29    1
     5    29    30    1
     6    30    31    1
     7    31    19    1
     8    19    20   ar
     9    20    21   ar
    10    21     1    1
    11     1     3    1
    12     3     4   ar
    13     4     5   ar
    14     5     6   ar
    15     6     7    1
    16     6     8   ar
    17     8    10    1
    18    10    11   ar
    19    11    12   ar
    20    12    13   ar
    21    13    14   ar
    22    14    15   ar
    23    15    16   ar
    24    16    17   ar
    25    17    18   ar
    26     8     9   ar
    27    21    22   ar
    28    22    23    1
    29    22    24   ar
    30    31    32    1
    31    32    33    1
    32    33    28    1
    33    24    19   ar
    34     9     3   ar
    35    18    10   ar
    36    18    13   ar
    37     1     2    1
@<TRIPOS>MOLECULE
*****
 33 37 0 0 0
SMALL
GASTEIGER

@<TRIPOS>ATOM
      1 N         143.9191  143.1204  162.2689 N.pl3   1  UNL1       -0.2804
      2 H         144.7722  143.5709  162.0723 H       1  UNL1        0.1551
      3 C         143.8875  141.9511  163.2079 C.ar    1  UNL1        0.2208
      4 N         144.9269  140.8750  163.1009 N.ar    1  UNL1       -0.2111
      5 C         144.8953  139.7057  164.0399 C.ar    1  UNL1        0.1147
      6 C         143.8242  139.6125  165.0858 C.ar    1  UNL1        0.0946
      7 CL        143.7926  138.4432  166.0248 Cl      1  UNL1       -0.0790
      8 C         142.7847  140.6887  165.1928 C.ar    1  UNL1        0.0992
      9 N         142.8164  141.8579  164.2539 N.ar    1  UNL1       -0.2126
     10 C         141.7136  140.5955  166.2388 C.ar    1  UNL1        0.0572
     11 C         141.6872  141.3373  167.5423 C.ar    1  UNL1        0.1235
     12 N         140.4381  140.9444  168.2739 N.ar    1  UNL1       -0.1634
     13 N         139.6925  139.9597  167.4227 N.ar    1  UNL1       -0.2281
     14 C         138.3977  139.2316  167.6305 C.ar    1  UNL1        0.1004
     15 C         137.8912  138.2878  166.5804 C.ar    1  UNL1        0.0207
     16 C         138.6795  138.0722  165.3226 C.ar    1  UNL1        0.0031
     17 C         139.9743  138.8003  165.1148 C.ar    1  UNL1        0.0193
     18 C         140.4808  139.7441  166.1649 C.ar    1  UNL1        0.0858
     19 N         140.8101  143.8763  160.0716 N.ar    1  UNL1       -0.2503
     20 C         142.0842  143.1263  160.3252 C.ar    1  UNL1        0.1108
     21 C         142.6512  143.6034  161.6295 C.ar    1  UNL1        0.0849
     22 C         141.7274  144.6483  162.1819 C.ar    1  UNL1        0.0938
     23 C         141.9096  145.3936  163.4708 C.3     1  UNL1        0.0553
     24 N         140.5897  144.8170  161.2191 N.ar    1  UNL1       -0.1724
     25 C         137.4646  144.0446  154.0692 C.3     1  UNL1        0.0948
     26 C         137.2251  143.2278  155.3043 C.2     1  UNL1        0.2261
     27 O         136.0894  142.2490  155.3476 O.2     1  UNL1       -0.2749
     28 N         138.1214  143.3899  156.4962 N.am    1  UNL1       -0.2794
     29 C         139.2571  144.3688  156.4528 C.3     1  UNL1        0.0954
     30 C         140.1533  144.5310  157.6447 C.3     1  UNL1        0.0459
     31 C         139.9139  143.7142  158.8798 C.3     1  UNL1        0.1087
     32 C         138.7782  142.7353  158.9231 C.3     1  UNL1        0.0459
     33 C         137.8819  142.5732  157.7313 C.3     1  UNL1        0.0954
@<TRIPOS>BOND
     1    25    26    1
     2    26    27    2
     3    26    28   am
     4    28    29    1
     5    29    30    1
     6    30    31    1
     7    31    19    1
     8    19    20   ar
     9    20    21   ar
    10    21     1    1
    11     1     3    1
    12     3     4   ar
    13     4     5   ar
    14     5     6   ar
    15     6     7    1
    16     6     8   ar
    17     8    10    1
    18    10    11   ar
    19    11    12   ar
    20    12    13   ar
    21    13    14   ar
    22    14    15   ar
    23    15    16   ar
    24    16    17   ar
    25    17    18   ar
    26     8     9   ar
    27    21    22   ar
    28    22    23    1
    29    22    24   ar
    30    31    32    1
    31    32    33    1
    32    33    28    1
    33    24    19   ar
    34     9     3   ar
    35    18    10   ar
    36    18    13   ar
    37     1     2    1
@<TRIPOS>MOLECULE
*****
 33 37 0 0 0
SMALL
GASTEIGER

@<TRIPOS>ATOM
      1 N         142.6124  140.1973  162.0621 N.pl3   1  UNL1       -0.2804
      2 H         143.1678  139.4627  161.7141 H       1  UNL1        0.1551
      3 C         141.6924  139.9573  163.2222 C.ar    1  UNL1        0.2208
      4 N         140.2754  139.5292  162.9796 N.ar    1  UNL1       -0.2111
      5 C         139.3553  139.2892  164.1397 C.ar    1  UNL1        0.1147
      6 C         139.8523  139.4772  165.5425 C.ar    1  UNL1        0.0946
      7 CL        138.9323  139.2372  166.7026 Cl      1  UNL1       -0.0790
      8 C         141.2694  139.9052  165.7851 C.ar    1  UNL1        0.0992
      9 N         142.1893  140.1453  164.6250 N.ar    1  UNL1       -0.2126
     10 C         141.7664  140.0932  167.1878 C.ar    1  UNL1        0.0572
     11 C         142.6912  139.1718  167.9265 C.ar    1  UNL1        0.1235
     12 N         142.9221  139.7448  169.2933 N.ar    1  UNL1       -0.1634
     13 N         142.1401  141.0204  169.3995 N.ar    1  UNL1       -0.2281
     14 C         141.9861  142.0136  170.5129 C.ar    1  UNL1        0.1004
     15 C         141.1178  143.2222  170.3250 C.ar    1  UNL1        0.0207
     16 C         140.4035  143.4376  169.0237 C.ar    1  UNL1        0.0031
     17 C         140.5575  142.4443  167.9103 C.ar    1  UNL1        0.0193
     18 C         141.4258  141.2357  168.0982 C.ar    1  UNL1        0.0858
     19 N         142.3149  143.4296  159.9339 N.ar    1  UNL1       -0.2503
     20 C         141.9450  142.0017  160.2063 C.ar    1  UNL1        0.1108
     21 C         142.6863  141.5566  161.4321 C.ar    1  UNL1        0.0849
     22 C         143.5144  142.7095  161.9173 C.ar    1  UNL1        0.0938
     23 C         144.4139  142.7054  163.1175 C.3     1  UNL1        0.0553
     24 N         143.2849  143.8670  160.9913 N.ar    1  UNL1       -0.1724
     25 C         139.0747  147.6787  155.6101 C.3     1  UNL1        0.0948
     26 C         140.2737  146.8000  155.4092 C.2     1  UNL1        0.2261
     27 O         140.9622  146.7640  154.0771 O.2     1  UNL1       -0.2749
     28 N         140.7840  145.9574  156.5404 N.am    1  UNL1       -0.2794
     29 C         140.0953  145.9935  157.8725 C.3     1  UNL1        0.0954
     30 C         140.6056  145.1509  159.0036 C.3     1  UNL1        0.0459
     31 C         141.8046  144.2722  158.8027 C.3     1  UNL1        0.1087
     32 C         142.4933  144.2361  157.4707 C.3     1  UNL1        0.0459
     33 C         141.9830  145.0787  156.3395 C.3     1  UNL1        0.0954
@<TRIPOS>BOND
     1    25    26    1
     2    26    27    2
     3    26    28   am
     4    28    29    1
     5    29    30    1
     6    30    31    1
     7    31    19    1
     8    19    20   ar
     9    20    21   ar
    10    21     1    1
    11     1     3    1
    12     3     4   ar
    13     4     5   ar
    14     5     6   ar
    15     6     7    1
    16     6     8   ar
    17     8    10    1
    18    10    11   ar
    19    11    12   ar
    20    12    13   ar
    21    13    14   ar
    22    14    15   ar
    23    15    16   ar
    24    16    17   ar
    25    17    18   ar
    26     8     9   ar
    27    21    22   ar
    28    22    23    1
    29    22    24   ar
    30    31    32    1
    31    32    33    1
    32    33    28    1
    33    24    19   ar
    34     9     3   ar
    35    18    10   ar
    36    18    13   ar
    37     1     2    1
@<TRIPOS>MOLECULE
*****
 33 37 0 0 0
SMALL
GASTEIGER

@<TRIPOS>ATOM
      1 N         138.1097  139.7141  162.8296 N.pl3   1  UNL1       -0.2804
      2 H         137.2831  139.1840  162.9009 H       1  UNL1        0.1551
      3 C         139.3303  139.3074  163.6008 C.ar    1  UNL1        0.2208
      4 N         139.9999  137.9973  163.3088 N.ar    1  UNL1       -0.2111
      5 C         141.2205  137.5906  164.0799 C.ar    1  UNL1        0.1147
      6 C         141.7714  138.4940  165.1432 C.ar    1  UNL1        0.0946
      7 CL        142.9920  138.0872  165.9144 Cl      1  UNL1       -0.0790
      8 C         141.1017  139.8041  165.4353 C.ar    1  UNL1        0.0992
      9 N         139.8812  140.2107  164.6641 N.ar    1  UNL1       -0.2126
     10 C         141.6526  140.7074  166.4986 C.ar    1  UNL1        0.0572
     11 C         142.9225  141.5008  166.4104 C.ar    1  UNL1        0.1235
     12 N         143.0850  142.2596  167.6940 N.ar    1  UNL1       -0.1634
     13 N         141.9155  141.9352  168.5755 N.ar    1  UNL1       -0.2281
     14 C         141.5424  142.3895  169.9555 C.ar    1  UNL1        0.1004
     15 C         140.2839  141.8843  170.5966 C.ar    1  UNL1        0.0207
     16 C         139.3986  140.9250  169.8578 C.ar    1  UNL1        0.0031
     17 C         139.7718  140.4708  168.4778 C.ar    1  UNL1        0.0193
     18 C         141.0302  140.9759  167.8367 C.ar    1  UNL1        0.0858
     19 N         138.3848  142.3655  160.0084 N.ar    1  UNL1       -0.2503
     20 C         138.4572  140.9441  160.4820 C.ar    1  UNL1        0.1108
     21 C         138.1484  140.9283  161.9499 C.ar    1  UNL1        0.0849
     22 C         137.8851  142.3401  162.3834 C.ar    1  UNL1        0.0938
     23 C         137.5368  142.7853  163.7727 C.3     1  UNL1        0.0553
     24 N         138.0312  143.2283  161.1835 N.ar    1  UNL1       -0.1724
     25 C         140.4485  145.2382  154.1144 C.3     1  UNL1        0.0948
     26 C         139.3414  144.2667  154.3986 C.2     1  UNL1        0.2261
     27 O         138.4736  143.7706  153.2803 O.2     1  UNL1       -0.2749
     28 N         139.1023  143.7914  155.8010 N.am    1  UNL1       -0.2794
     29 C         139.9701  144.2876  156.9193 C.3     1  UNL1        0.0954
     30 C         139.7310  143.8123  158.3218 C.3     1  UNL1        0.0459
     31 C         138.6240  142.8408  158.6059 C.3     1  UNL1        0.1087
     32 C         137.7561  142.3447  157.4877 C.3     1  UNL1        0.0459
     33 C         137.9953  142.8200  156.0852 C.3     1  UNL1        0.0954
@<TRIPOS>BOND
     1    25    26    1
     2    26    27    2
     3    26    28   am
     4    28    29    1
     5    29    30    1
     6    30    31    1
     7    31    19    1
     8    19    20   ar
     9    20    21   ar
    10    21     1    1
    11     1     3    1
    12     3     4   ar
    13     4     5   ar
    14     5     6   ar
    15     6     7    1
    16     6     8   ar
    17     8    10    1
    18    10    11   ar
    19    11    12   ar
    20    12    13   ar
    21    13    14   ar
    22    14    15   ar
    23    15    16   ar
    24    16    17   ar
    25    17    18   ar
    26     8     9   ar
    27    21    22   ar
    28    22    23    1
    29    22    24   ar
    30    31    32    1
    31    32    33    1
    32    33    28    1
    33    24    19   ar
    34     9     3   ar
    35    18    10   ar
    36    18    13   ar
    37     1     2    1
@<TRIPOS>MOLECULE
*****
 33 37 0 0 0
SMALL
GASTEIGER

@<TRIPOS>ATOM
      1 N         141.8086  137.2927  162.4656 N.pl3   1  UNL1       -0.2804
      2 H         141.8934  136.3126  162.5030 H       1  UNL1        0.1551
      3 C         142.3726  138.0503  161.3003 C.ar    1  UNL1        0.2208
      4 N         143.3989  139.1204  161.5273 N.ar    1  UNL1       -0.2111
      5 C         143.9629  139.8780  160.3619 C.ar    1  UNL1        0.1147
      6 C         143.5005  139.5654  158.9696 C.ar    1  UNL1        0.0946
      7 CL        144.0645  140.3230  157.8043 Cl      1  UNL1       -0.0790
      8 C         142.4742  138.4953  158.7426 C.ar    1  UNL1        0.0992
      9 N         141.9103  137.7378  159.9079 N.ar    1  UNL1       -0.2126
     10 C         142.0118  138.1827  157.3503 C.ar    1  UNL1        0.0572
     11 C         141.0870  139.0217  156.5192 C.ar    1  UNL1        0.1235
     12 N         140.8968  138.3338  155.1999 N.ar    1  UNL1       -0.1634
     13 N         141.7041  137.0697  155.2156 N.ar    1  UNL1       -0.2281
     14 C         141.9007  135.9916  154.1914 C.ar    1  UNL1        0.1004
     15 C         142.7864  134.8201  154.4963 C.ar    1  UNL1        0.0207
     16 C         143.4756  134.7267  155.8253 C.ar    1  UNL1        0.0031
     17 C         143.2790  135.8048  156.8495 C.ar    1  UNL1        0.0193
     18 C         142.3932  136.9763  156.5446 C.ar    1  UNL1        0.0858
     19 N         140.7121  139.3008  165.6010 N.ar    1  UNL1       -0.2503
     20 C         141.7809  138.6877  164.7456 C.ar    1  UNL1        0.1108
     21 C         141.1155  138.0284  163.5739 C.ar    1  UNL1        0.0849
     22 C         139.6355  138.2341  163.7052 C.ar    1  UNL1        0.0938
     23 C         138.5887  137.7402  162.7512 C.3     1  UNL1        0.0553
     24 N         139.3861  139.0204  164.9580 N.ar    1  UNL1       -0.1724
     25 C         142.7869  143.2280  170.8471 C.3     1  UNL1        0.0948
     26 C         141.5866  142.3406  170.6994 C.2     1  UNL1        0.2261
     27 O         140.6050  142.2132  171.8265 O.2     1  UNL1       -0.2749
     28 N         141.3680  141.5806  169.4248 N.am    1  UNL1       -0.2794
     29 C         142.3496  141.7081  168.2978 C.3     1  UNL1        0.0954
     30 C         142.1310  140.9482  167.0232 C.3     1  UNL1        0.0459
     31 C         140.9307  140.0607  166.8756 C.3     1  UNL1        0.1087
     32 C         139.9491  139.9332  168.0026 C.3     1  UNL1        0.0459
     33 C         140.1677  140.6932  169.2772 C.3     1  UNL1        0.0954
@<TRIPOS>BOND
     1    25    26    1
     2    26    27    2
     3    26    28   am
     4    28    29    1
     5    29    30    1
     6    30    31    1
     7    31    19    1
     8    19    20   ar
     9    20    21   ar
    10    21     1    1
    11     1     3    1
    12     3     4   ar
    13     4     5   ar
    14     5     6   ar
    15     6     7    1
    16     6     8   ar
    17     8    10    1
    18    10    11   ar
    19    11    12   ar
    20    12    13   ar
    21    13    14   ar
    22    14    15   ar
    23    15    16   ar
    24    16    17   ar
    25    17    18   ar
    26     8     9   ar
    27    21    22   ar
    28    22    23    1
    29    22    24   ar
    30    31    32    1
    31    32    33    1
    32    33    28    1
    33    24    19   ar
    34     9     3   ar
    35    18    10   ar
    36    18    13   ar
    37     1     2    1
@<TRIPOS>MOLECULE
*****
 33 37 0 0 0
SMALL
GASTEIGER

@<TRIPOS>ATOM
      1 N         139.8716  142.9974  162.5115 N.pl3   1  UNL1       -0.2804
      2 H         139.1724  143.6895  162.5489 H       1  UNL1        0.1551
      3 C         139.6770  141.6951  163.2300 C.ar    1  UNL1        0.2208
      4 N         138.6338  140.7265  162.7574 N.ar    1  UNL1       -0.2111
      5 C         138.4392  139.4242  163.4758 C.ar    1  UNL1        0.1147
      6 C         139.2878  139.0905  164.6668 C.ar    1  UNL1        0.0946
      7 CL        139.0932  137.7882  165.3852 Cl      1  UNL1       -0.0790
      8 C         140.3311  140.0592  165.1394 C.ar    1  UNL1        0.0992
      9 N         140.5257  141.3614  164.4210 N.ar    1  UNL1       -0.2126
     10 C         141.1798  139.7256  166.3304 C.ar    1  UNL1        0.0572
     11 C         142.5529  139.1228  166.2935 C.ar    1  UNL1        0.1235
     12 N         143.0260  138.9608  167.7077 N.ar    1  UNL1       -0.1634
     13 N         141.9454  139.4634  168.6185 N.ar    1  UNL1       -0.2281
     14 C         141.8530  139.5518  170.1130 C.ar    1  UNL1        0.1004
     15 C         140.6196  140.1129  170.7563 C.ar    1  UNL1        0.0207
     16 C         139.4786  140.5856  169.9051 C.ar    1  UNL1        0.0031
     17 C         139.5709  140.4972  168.4105 C.ar    1  UNL1        0.0193
     18 C         140.8044  139.9361  167.7673 C.ar    1  UNL1        0.0858
     19 N         142.7911  143.2384  159.9652 N.ar    1  UNL1       -0.2503
     20 C         141.4203  142.7626  160.3456 C.ar    1  UNL1        0.1108
     21 C         141.1315  143.2453  161.7362 C.ar    1  UNL1        0.0849
     22 C         142.3238  144.0194  162.2151 C.ar    1  UNL1        0.0938
     23 C         142.4654  144.6815  163.5536 C.3     1  UNL1        0.0553
     24 N         143.3494  144.0152  161.1207 N.ar    1  UNL1       -0.1724
     25 C         146.9955  141.7947  154.7222 C.3     1  UNL1        0.0948
     26 C         145.5555  142.2145  154.7393 C.2     1  UNL1        0.2261
     27 O         144.8067  142.3782  153.4500 O.2     1  UNL1       -0.2749
     28 N         144.8644  142.4705  156.0458 N.am    1  UNL1       -0.2794
     29 C         145.6133  142.3067  157.3351 C.3     1  UNL1        0.0954
     30 C         144.9222  142.5627  158.6416 C.3     1  UNL1        0.0459
     31 C         143.4822  142.9824  158.6587 C.3     1  UNL1        0.1087
     32 C         142.7333  143.1462  157.3694 C.3     1  UNL1        0.0459
     33 C         143.4244  142.8902  156.0629 C.3     1  UNL1        0.0954
@<TRIPOS>BOND
     1    25    26    1
     2    26    27    2
     3    26    28   am
     4    28    29    1
     5    29    30    1
     6    30    31    1
     7    31    19    1
     8    19    20   ar
     9    20    21   ar
    10    21     1    1
    11     1     3    1
    12     3     4   ar
    13     4     5   ar
    14     5     6   ar
    15     6     7    1
    16     6     8   ar
    17     8    10    1
    18    10    11   ar
    19    11    12   ar
    20    12    13   ar
    21    13    14   ar
    22    14    15   ar
    23    15    16   ar
    24    16    17   ar
    25    17    18   ar
    26     8     9   ar
    27    21    22   ar
    28    22    23    1
    29    22    24   ar
    30    31    32    1
    31    32    33    1
    32    33    28    1
    33    24    19   ar
    34     9     3   ar
    35    18    10   ar
    36    18    13   ar
    37     1     2    1
@<TRIPOS>MOLECULE
*****
 33 37 0 0 0
SMALL
GASTEIGER

@<TRIPOS>ATOM
      1 N         142.4725  139.0352  159.0248 N.pl3   1  UNL1       -0.2804
      2 H         143.1210  139.7305  158.7694 H       1  UNL1        0.1551
      3 C         141.9466  138.9795  160.4285 C.ar    1  UNL1        0.2208
      4 N         142.5238  138.0003  161.4072 N.ar    1  UNL1       -0.2111
      5 C         141.9979  137.9445  162.8109 C.ar    1  UNL1        0.1147
      6 C         140.8949  138.8680  163.2358 C.ar    1  UNL1        0.0946
      7 CL        140.3690  138.8122  164.6395 Cl      1  UNL1       -0.0790
      8 C         140.3177  139.8472  162.2570 C.ar    1  UNL1        0.0992
      9 N         140.8436  139.9029  160.8534 N.ar    1  UNL1       -0.2126
     10 C         139.2146  140.7707  162.6819 C.ar    1  UNL1        0.0572
     11 C         137.7479  140.5566  162.4521 C.ar    1  UNL1        0.1235
     12 N         137.0115  141.7240  163.0394 N.ar    1  UNL1       -0.1634
     13 N         138.0231  142.6595  163.6323 N.ar    1  UNL1       -0.2281
     14 C         137.8803  143.9717  164.3447 C.ar    1  UNL1        0.1004
     15 C         139.0991  144.6947  164.8362 C.ar    1  UNL1        0.0207
     16 C         140.4608  144.1056  164.6153 C.ar    1  UNL1        0.0031
     17 C         140.6036  142.7933  163.9028 C.ar    1  UNL1        0.0193
     18 C         139.3848  142.0703  163.4113 C.ar    1  UNL1        0.0858
     19 N         141.9464  136.1159  156.5216 N.ar    1  UNL1       -0.2503
     20 C         142.7862  136.8406  157.5314 C.ar    1  UNL1        0.1108
     21 C         142.0102  138.0318  158.0102 C.ar    1  UNL1        0.0849
     22 C         140.6909  138.0431  157.2964 C.ar    1  UNL1        0.0938
     23 C         139.6023  139.0599  157.4719 C.3     1  UNL1        0.0553
     24 N         140.6515  136.8590  156.3764 N.ar    1  UNL1       -0.1724
     25 C         144.4161  130.1271  154.2227 C.3     1  UNL1        0.0948
     26 C         143.4951  131.1212  153.5797 C.2     1  UNL1        0.2261
     27 O         142.9613  130.8666  152.2013 O.2     1  UNL1       -0.2749
     28 N         143.1079  132.3699  154.3152 N.am    1  UNL1       -0.2794
     29 C         143.6418  132.6244  155.6937 C.3     1  UNL1        0.0954
     30 C         143.2546  133.8731  156.4291 C.3     1  UNL1        0.0459
     31 C         142.3336  134.8672  155.7861 C.3     1  UNL1        0.1087
     32 C         141.7997  134.6127  154.4077 C.3     1  UNL1        0.0459
     33 C         142.1869  133.3640  153.6722 C.3     1  UNL1        0.0954
@<TRIPOS>BOND
     1    25    26    1
     2    26    27    2
     3    26    28   am
     4    28    29    1
     5    29    30    1
     6    30    31    1
     7    31    19    1
     8    19    20   ar
     9    20    21   ar
    10    21     1    1
    11     1     3    1
    12     3     4   ar
    13     4     5   ar
    14     5     6   ar
    15     6     7    1
    16     6     8   ar
    17     8    10    1
    18    10    11   ar
    19    11    12   ar
    20    12    13   ar
    21    13    14   ar
    22    14    15   ar
    23    15    16   ar
    24    16    17   ar
    25    17    18   ar
    26     8     9   ar
    27    21    22   ar
    28    22    23    1
    29    22    24   ar
    30    31    32    1
    31    32    33    1
    32    33    28    1
    33    24    19   ar
    34     9     3   ar
    35    18    10   ar
    36    18    13   ar
    37     1     2    1
@<TRIPOS>MOLECULE
*****
 33 37 0 0 0
SMALL
GASTEIGER

@<TRIPOS>ATOM
      1 N         141.5622  137.3729  162.8306 N.pl3   1  UNL1       -0.2804
      2 H         141.8610  136.4677  163.0769 H       1  UNL1        0.1551
      3 C         141.9576  137.9593  161.5078 C.ar    1  UNL1        0.2208
      4 N         143.3805  138.3660  161.2630 N.ar    1  UNL1       -0.2111
      5 C         143.7759  138.9523  159.9402 C.ar    1  UNL1        0.1147
      6 C         142.7485  139.1320  158.8623 C.ar    1  UNL1        0.0946
      7 CL        143.1439  139.7184  157.5395 Cl      1  UNL1       -0.0790
      8 C         141.3255  138.7253  159.1071 C.ar    1  UNL1        0.0992
      9 N         140.9301  138.1390  160.4298 N.ar    1  UNL1       -0.2126
     10 C         140.2980  138.9050  158.0291 C.ar    1  UNL1        0.0572
     11 C         139.9415  137.8997  156.9745 C.ar    1  UNL1        0.1235
     12 N         138.8698  138.4950  156.1101 N.ar    1  UNL1       -0.1634
     13 N         138.5640  139.8682  156.6305 N.ar    1  UNL1       -0.2281
     14 C         137.5958  140.9206  156.1777 C.ar    1  UNL1        0.1004
     15 C         137.5103  142.2264  156.9109 C.ar    1  UNL1        0.0207
     16 C         138.3930  142.4798  158.0969 C.ar    1  UNL1        0.0031
     17 C         139.3612  141.4274  158.5497 C.ar    1  UNL1        0.0193
     18 C         139.4467  140.1216  157.8166 C.ar    1  UNL1        0.0858
     19 N         140.0164  139.5940  165.6131 N.ar    1  UNL1       -0.2503
     20 C         141.2050  138.9692  164.9447 C.ar    1  UNL1        0.1108
     21 C         140.7114  138.1655  163.7782 C.ar    1  UNL1        0.0849
     22 C         139.2178  138.2937  163.7258 C.ar    1  UNL1        0.0938
     23 C         138.3127  137.6517  162.7166 C.3     1  UNL1        0.0553
     24 N         138.7882  139.1765  164.8598 N.ar    1  UNL1       -0.1724
     25 C         140.3922  144.6129  170.2949 C.3     1  UNL1        0.0948
     26 C         140.1509  143.1407  170.4508 C.2     1  UNL1        0.2261
     27 O         139.9432  142.5552  171.8161 O.2     1  UNL1       -0.2749
     28 N         140.1173  142.2540  169.2414 N.am    1  UNL1       -0.2794
     29 C         140.3249  142.8396  167.8761 C.3     1  UNL1        0.0954
     30 C         140.2913  141.9529  166.6667 C.3     1  UNL1        0.0459
     31 C         140.0500  140.4807  166.8225 C.3     1  UNL1        0.1087
     32 C         139.8424  139.8951  168.1878 C.3     1  UNL1        0.0459
     33 C         139.8760  140.7818  169.3972 C.3     1  UNL1        0.0954
@<TRIPOS>BOND
     1    25    26    1
     2    26    27    2
     3    26    28   am
     4    28    29    1
     5    29    30    1
     6    30    31    1
     7    31    19    1
     8    19    20   ar
     9    20    21   ar
    10    21     1    1
    11     1     3    1
    12     3     4   ar
    13     4     5   ar
    14     5     6   ar
    15     6     7    1
    16     6     8   ar
    17     8    10    1
    18    10    11   ar
    19    11    12   ar
    20    12    13   ar
    21    13    14   ar
    22    14    15   ar
    23    15    16   ar
    24    16    17   ar
    25    17    18   ar
    26     8     9   ar
    27    21    22   ar
    28    22    23    1
    29    22    24   ar
    30    31    32    1
    31    32    33    1
    32    33    28    1
    33    24    19   ar
    34     9     3   ar
    35    18    10   ar
    36    18    13   ar
    37     1     2    1
@<TRIPOS>MOLECULE
*****
 33 37 0 0 0
SMALL
GASTEIGER

@<TRIPOS>ATOM
      1 N         143.8958  143.0581  162.2949 N.pl3   1  UNL1       -0.2804
      2 H         144.7506  143.5006  162.0885 H       1  UNL1        0.1551
      3 C         143.8628  141.8945  163.2409 C.ar    1  UNL1        0.2208
      4 N         144.8275  140.7591  163.0671 N.ar    1  UNL1       -0.2111
      5 C         144.7946  139.5955  164.0131 C.ar    1  UNL1        0.1147
      6 C         143.7969  139.5673  165.1329 C.ar    1  UNL1        0.0946
      7 CL        143.7640  138.4037  166.0789 Cl      1  UNL1       -0.0790
      8 C         142.8321  140.7028  165.3066 C.ar    1  UNL1        0.0992
      9 N         142.8651  141.8663  164.3606 N.ar    1  UNL1       -0.2126
     10 C         141.8345  140.6745  166.4264 C.ar    1  UNL1        0.0572
     11 C         140.4931  140.0039  166.3954 C.ar    1  UNL1        0.1235
     12 N         139.8327  140.2269  167.7236 N.ar    1  UNL1       -0.1634
     13 N         140.7659  141.0353  168.5755 N.ar    1  UNL1       -0.2281
     14 C         140.6489  141.5553  169.9776 C.ar    1  UNL1        0.1004
     15 C         141.7692  142.3519  170.5779 C.ar    1  UNL1        0.0207
     16 C         143.0064  142.6285  169.7761 C.ar    1  UNL1        0.0031
     17 C         143.1233  142.1086  168.3740 C.ar    1  UNL1        0.0193
     18 C         142.0031  141.3120  167.7737 C.ar    1  UNL1        0.0858
     19 N         140.7813  143.8357  160.1130 N.ar    1  UNL1       -0.2503
     20 C         142.0558  143.0830  160.3561 C.ar    1  UNL1        0.1108
     21 C         142.6263  143.5475  161.6634 C.ar    1  UNL1        0.0849
     22 C         141.7044  144.5874  162.2281 C.ar    1  UNL1        0.0938
     23 C         141.8902  145.3204  163.5235 C.3     1  UNL1        0.0553
     24 N         140.5641  144.7655  161.2699 N.ar    1  UNL1       -0.1724
     25 C         137.3962  144.0895  154.1358 C.3     1  UNL1        0.0948
     26 C         137.1836  143.2336  155.3492 C.2     1  UNL1        0.2261
     27 O         136.0717  142.2271  155.3715 O.2     1  UNL1       -0.2749
     28 N         138.0830  143.3841  156.5401 N.am    1  UNL1       -0.2794
     29 C         139.1950  144.3906  156.5177 C.3     1  UNL1        0.0954
     30 C         140.0944  144.5411  157.7087 C.3     1  UNL1        0.0459
     31 C         139.8819  143.6852  158.9220 C.3     1  UNL1        0.1087
     32 C         138.7699  142.6787  158.9444 C.3     1  UNL1        0.0459
     33 C         137.8705  142.5282  157.7535 C.3     1  UNL1        0.0954
@<TRIPOS>BOND
     1    25    26    1
     2    26    27    2
     3    26    28   am
     4    28    29    1
     5    29    30    1
     6    30    31    1
     7    31    19    1
     8    19    20   ar
     9    20    21   ar
    10    21     1    1
    11     1     3    1
    12     3     4   ar
    13     4     5   ar
    14     5     6   ar
    15     6     7    1
    16     6     8   ar
    17     8    10    1
    18    10    11   ar
    19    11    12   ar
    20    12    13   ar
    21    13    14   ar
    22    14    15   ar
    23    15    16   ar
    24    16    17   ar
    25    17    18   ar
    26     8     9   ar
    27    21    22   ar
    28    22    23    1
    29    22    24   ar
    30    31    32    1
    31    32    33    1
    32    33    28    1
    33    24    19   ar
    34     9     3   ar
    35    18    10   ar
    36    18    13   ar
    37     1     2    1
