@<TRIPOS>MOLECULE
*****
 31 35 0 0 0
SMALL
GASTEIGER

@<TRIPOS>ATOM
      1 C         144.6879  139.6521  163.8471 C.3     1  UNL1        0.0731
      2 N         143.3485  139.5490  164.5146 N.3     1  UNL1       -0.2712
      3 C         142.1504  138.8222  163.9796 C.3     1  UNL1        0.0738
      4 C         141.0336  138.9786  164.9687 C.3     1  UNL1        0.0372
      5 C         139.6029  138.6261  165.2493 C.3     1  UNL1        0.0245
      6 C         139.2265  139.2318  166.5690 C.3     1  UNL1        0.0909
      7 N         140.4247  139.9587  167.1040 N.pl3   1  UNL1       -0.3076
      8 C         141.5415  139.8022  166.1149 C.3     1  UNL1        0.0901
      9 C         142.9722  140.1547  165.8343 C.3     1  UNL1        0.0921
     10 C         140.4938  140.7101  168.4003 C.ar    1  UNL1        0.0501
     11 C         140.6519  139.9642  169.6921 C.ar    1  UNL1        0.0147
     12 C         140.7210  140.7156  170.9884 C.ar    1  UNL1        0.0036
     13 C         140.6321  142.2130  170.9931 C.ar    1  UNL1        0.0297
     14 C         140.4740  142.9590  169.7013 C.ar    1  UNL1        0.1414
     15 F         140.3851  144.4563  169.7060 F       1  UNL1       -0.2041
     16 C         140.4049  142.2075  168.4049 C.ar    1  UNL1        0.0441
     17 C         145.4750  140.9258  163.9377 C.3     1  UNL1        0.0294
     18 C         145.4197  141.9229  162.8185 C.3     1  UNL1        0.0666
     19 S         144.5533  143.1411  162.9414 S.3     1  UNL1       -0.0756
     20 C         140.7780  142.4399  163.5084 C.ar    1  UNL1        0.2029
     21 N         141.1302  143.1694  164.7710 N.ar    1  UNL1       -0.1250
     22 N         142.5873  143.5208  164.7122 N.ar    1  UNL1       -0.1220
     23 C         143.1356  143.0086  163.4134 C.ar    1  UNL1        0.1933
     24 N         142.0175  142.3406  162.6694 N.ar    1  UNL1       -0.2860
     25 C         142.1207  141.6878  161.3228 C.3     1  UNL1        0.1341
     26 C         137.9237  143.9360  164.0228 C.3     1  UNL1        0.0556
     27 C         138.1122  142.5917  163.3847 C.ar    1  UNL1        0.1001
     28 N         137.0218  141.6989  162.8709 N.ar    1  UNL1       -0.2085
     29 C         137.6598  140.4595  162.3169 C.ar    1  UNL1        0.2849
     30 O         139.1445  140.5863  162.4883 O.2     1  UNL1       -0.4283
     31 C         139.4241  141.9040  163.1482 C.ar    1  UNL1        0.1964
@<TRIPOS>BOND
     1    26    27    1
     2    27    28   ar
     3    28    29   ar
     4    29    30   ar
     5    30    31   ar
     6    31    20    1
     7    20    21   ar
     8    21    22   ar
     9    22    23   ar
    10    23    19    1
    11    19    18    1
    12    18    17    1
    13    17     1    1
    14     1     2    1
    15     2     3    1
    16     3     4    1
    17     4     5    1
    18     5     6    1
    19     6     7    1
    20     7    10    1
    21    10    11   ar
    22    11    12   ar
    23    12    13   ar
    24    13    14   ar
    25    14    15    1
    26    14    16   ar
    27     7     8    1
    28     8     9    1
    29    23    24   ar
    30    24    25    1
    31    31    27   ar
    32    24    20   ar
    33     9     2    1
    34     8     4    1
    35    16    10   ar
@<TRIPOS>MOLECULE
*****
 31 35 0 0 0
SMALL
GASTEIGER

@<TRIPOS>ATOM
      1 C         142.8178  144.2096  163.4178 C.3     1  UNL1        0.0731
      2 N         142.9191  142.9040  164.1495 N.3     1  UNL1       -0.2712
      3 C         143.5618  141.6512  163.6326 C.3     1  UNL1        0.0738
      4 C         143.4354  140.5951  164.6902 C.3     1  UNL1        0.0372
      5 C         143.7545  139.1680  165.0244 C.3     1  UNL1        0.0245
      6 C         143.2309  138.8861  166.4015 C.3     1  UNL1        0.0909
      7 N         142.5881  140.1390  166.9184 N.pl3   1  UNL1       -0.3076
      8 C         142.7145  141.1952  165.8608 C.3     1  UNL1        0.0901
      9 C         142.3954  142.6222  165.5266 C.3     1  UNL1        0.0921
     10 C         141.9338  140.3064  168.2577 C.ar    1  UNL1        0.0501
     11 C         142.7678  140.6083  169.4674 C.ar    1  UNL1        0.0147
     12 C         142.1135  140.7757  170.8067 C.ar    1  UNL1        0.0036
     13 C         140.6252  140.6410  170.9365 C.ar    1  UNL1        0.0297
     14 C         139.7911  140.3391  169.7268 C.ar    1  UNL1        0.1414
     15 F         138.3029  140.2045  169.8565 F       1  UNL1       -0.2041
     16 C         140.4454  140.1717  168.3874 C.ar    1  UNL1        0.0441
     17 C         141.6924  145.1538  163.7209 C.3     1  UNL1        0.0294
     18 C         140.7315  145.5477  162.6384 C.3     1  UNL1        0.0666
     19 S         139.3623  144.9369  162.5922 S.3     1  UNL1       -0.0756
     20 C         139.0693  141.2799  163.8597 C.ar    1  UNL1        0.2029
     21 N         138.2974  142.0152  164.9149 N.ar    1  UNL1       -0.1250
     22 N         138.3132  143.4746  164.5685 N.ar    1  UNL1       -0.1220
     23 C         139.0949  143.6413  163.2992 C.ar    1  UNL1        0.1933
     24 N         139.5623  142.2849  162.8611 N.ar    1  UNL1       -0.2860
     25 C         140.3791  141.9861  161.6390 C.3     1  UNL1        0.1341
     26 C         137.7819  139.2001  161.6994 C.3     1  UNL1        0.0556
     27 C         138.7150  138.8436  162.8185 C.ar    1  UNL1        0.1001
     28 N         139.2201  137.4686  163.1411 N.ar    1  UNL1       -0.2085
     29 C         140.1240  137.5747  164.3335 C.ar    1  UNL1        0.2849
     30 O         140.1775  139.0154  164.7478 O.2     1  UNL1       -0.4283
     31 C         139.3067  139.7996  163.8115 C.ar    1  UNL1        0.1964
@<TRIPOS>BOND
     1    26    27    1
     2    27    28   ar
     3    28    29   ar
     4    29    30   ar
     5    30    31   ar
     6    31    20    1
     7    20    21   ar
     8    21    22   ar
     9    22    23   ar
    10    23    19    1
    11    19    18    1
    12    18    17    1
    13    17     1    1
    14     1     2    1
    15     2     3    1
    16     3     4    1
    17     4     5    1
    18     5     6    1
    19     6     7    1
    20     7    10    1
    21    10    11   ar
    22    11    12   ar
    23    12    13   ar
    24    13    14   ar
    25    14    15    1
    26    14    16   ar
    27     7     8    1
    28     8     9    1
    29    23    24   ar
    30    24    25    1
    31    31    27   ar
    32    24    20   ar
    33     9     2    1
    34     8     4    1
    35    16    10   ar
@<TRIPOS>MOLECULE
*****
 31 35 0 0 0
SMALL
GASTEIGER

@<TRIPOS>ATOM
      1 C         140.2166  145.7565  161.4877 C.3     1  UNL1        0.0731
      2 N         140.3628  144.9312  162.7317 N.3     1  UNL1       -0.2712
      3 C         139.5331  145.0560  163.9751 C.3     1  UNL1        0.0738
      4 C         140.0219  144.0382  164.9626 C.3     1  UNL1        0.0372
      5 C         139.8112  143.4862  166.3413 C.3     1  UNL1        0.0245
      6 C         140.8128  142.3913  166.5604 C.3     1  UNL1        0.0909
      7 N         141.6425  142.2665  165.3170 N.pl3   1  UNL1       -0.3076
      8 C         141.1537  143.2843  164.3295 C.3     1  UNL1        0.0901
      9 C         141.3644  143.8363  162.9507 C.3     1  UNL1        0.0921
     10 C         142.7641  141.2946  165.0993 C.ar    1  UNL1        0.0501
     11 C         143.9204  141.6683  164.2199 C.ar    1  UNL1        0.0147
     12 C         145.0419  140.6964  164.0023 C.ar    1  UNL1        0.0036
     13 C         145.0072  139.3507  164.6639 C.ar    1  UNL1        0.0297
     14 C         143.8509  138.9768  165.5433 C.ar    1  UNL1        0.1414
     15 F         143.8162  137.6311  166.2049 F       1  UNL1       -0.2041
     16 C         142.7293  139.9488  165.7610 C.ar    1  UNL1        0.0441
     17 C         140.7802  145.2614  160.1888 C.3     1  UNL1        0.0294
     18 C         139.9437  144.4029  159.2869 C.3     1  UNL1        0.0666
     19 S         139.8541  142.9253  159.5291 S.3     1  UNL1       -0.0756
     20 C         138.5098  141.1079  162.6844 C.ar    1  UNL1        0.2029
     21 N         137.4129  142.0994  162.4314 N.ar    1  UNL1       -0.1250
     22 N         137.7830  142.9009  161.2187 N.ar    1  UNL1       -0.1220
     23 C         139.1086  142.4047  160.7221 C.ar    1  UNL1        0.1933
     24 N         139.5578  141.2967  161.6279 N.ar    1  UNL1       -0.2860
     25 C         140.8314  140.5146  161.4997 C.3     1  UNL1        0.1341
     26 C         138.6195  137.8646  162.3403 C.3     1  UNL1        0.0556
     27 C         138.6018  138.6133  163.6400 C.ar    1  UNL1        0.1001
     28 N         138.6314  138.0027  165.0098 N.ar    1  UNL1       -0.2085
     29 C         138.5992  139.1160  166.0145 C.ar    1  UNL1        0.2849
     30 O         138.5498  140.4148  165.2656 O.2     1  UNL1       -0.4283
     31 C         138.5513  140.1041  163.7982 C.ar    1  UNL1        0.1964
@<TRIPOS>BOND
     1    26    27    1
     2    27    28   ar
     3    28    29   ar
     4    29    30   ar
     5    30    31   ar
     6    31    20    1
     7    20    21   ar
     8    21    22   ar
     9    22    23   ar
    10    23    19    1
    11    19    18    1
    12    18    17    1
    13    17     1    1
    14     1     2    1
    15     2     3    1
    16     3     4    1
    17     4     5    1
    18     5     6    1
    19     6     7    1
    20     7    10    1
    21    10    11   ar
    22    11    12   ar
    23    12    13   ar
    24    13    14   ar
    25    14    15    1
    26    14    16   ar
    27     7     8    1
    28     8     9    1
    29    23    24   ar
    30    24    25    1
    31    31    27   ar
    32    24    20   ar
    33     9     2    1
    34     8     4    1
    35    16    10   ar
@<TRIPOS>MOLECULE
*****
 31 35 0 0 0
SMALL
GASTEIGER

@<TRIPOS>ATOM
      1 C         138.3090  144.3019  162.8539 C.3     1  UNL1        0.0731
      2 N         138.4945  143.1364  163.7797 N.3     1  UNL1       -0.2712
      3 C         137.8016  141.8099  163.6772 C.3     1  UNL1        0.0738
      4 C         138.2844  140.9465  164.8048 C.3     1  UNL1        0.0372
      5 C         138.1545  139.5931  165.4383 C.3     1  UNL1        0.0245
      6 C         139.0656  139.5493  166.6292 C.3     1  UNL1        0.0909
      7 N         139.7585  140.8758  166.7316 N.pl3   1  UNL1       -0.3076
      8 C         139.2757  141.7393  165.6041 C.3     1  UNL1        0.0901
      9 C         139.4055  143.0927  164.9706 C.3     1  UNL1        0.0921
     10 C         140.7586  141.2696  167.7779 C.ar    1  UNL1        0.0501
     11 C         141.8907  140.3464  168.1185 C.ar    1  UNL1        0.0147
     12 C         142.8908  140.7403  169.1648 C.ar    1  UNL1        0.0036
     13 C         142.7588  142.0572  169.8705 C.ar    1  UNL1        0.0297
     14 C         141.6267  142.9805  169.5299 C.ar    1  UNL1        0.1414
     15 F         141.4947  144.2975  170.2357 F       1  UNL1       -0.2041
     16 C         140.6266  142.5867  168.4837 C.ar    1  UNL1        0.0441
     17 C         139.3288  145.4012  162.8184 C.3     1  UNL1        0.0294
     18 C         139.9543  145.8024  161.5153 C.3     1  UNL1        0.0666
     19 S         140.9798  144.9170  160.8717 S.3     1  UNL1       -0.0756
     20 C         143.1495  142.4450  162.9327 C.ar    1  UNL1        0.2029
     21 N         143.9147  143.7225  163.1134 N.ar    1  UNL1       -0.1250
     22 N         143.1951  144.8040  162.3633 N.ar    1  UNL1       -0.1220
     23 C         141.9851  144.1949  161.7190 C.ar    1  UNL1        0.1933
     24 N         141.9569  142.7371  162.0709 N.ar    1  UNL1       -0.2860
     25 C         140.9185  141.7453  161.6372 C.3     1  UNL1        0.1341
     26 C         144.1379  139.8290  161.2507 C.3     1  UNL1        0.0556
     27 C         143.9673  139.9076  162.7389 C.ar    1  UNL1        0.1001
     28 N         144.2211  138.7976  163.7153 N.ar    1  UNL1       -0.2085
     29 C         143.9236  139.3139  165.0919 C.ar    1  UNL1        0.2849
     30 O         143.4860  140.7432  164.9662 O.2     1  UNL1       -0.4283
     31 C         143.5130  141.1100  163.5120 C.ar    1  UNL1        0.1964
@<TRIPOS>BOND
     1    26    27    1
     2    27    28   ar
     3    28    29   ar
     4    29    30   ar
     5    30    31   ar
     6    31    20    1
     7    20    21   ar
     8    21    22   ar
     9    22    23   ar
    10    23    19    1
    11    19    18    1
    12    18    17    1
    13    17     1    1
    14     1     2    1
    15     2     3    1
    16     3     4    1
    17     4     5    1
    18     5     6    1
    19     6     7    1
    20     7    10    1
    21    10    11   ar
    22    11    12   ar
    23    12    13   ar
    24    13    14   ar
    25    14    15    1
    26    14    16   ar
    27     7     8    1
    28     8     9    1
    29    23    24   ar
    30    24    25    1
    31    31    27   ar
    32    24    20   ar
    33     9     2    1
    34     8     4    1
    35    16    10   ar
@<TRIPOS>MOLECULE
*****
 31 35 0 0 0
SMALL
GASTEIGER

@<TRIPOS>ATOM
      1 C         138.7884  137.8346  163.1506 C.3     1  UNL1        0.0731
      2 N         139.8222  138.5865  163.9354 N.3     1  UNL1       -0.2712
      3 C         141.2624  138.7626  163.5547 C.3     1  UNL1        0.0738
      4 C         141.9275  139.5792  164.6227 C.3     1  UNL1        0.0372
      5 C         143.2287  140.1928  165.0476 C.3     1  UNL1        0.0245
      6 C         143.0038  140.9007  166.3508 C.3     1  UNL1        0.0909
      7 N         141.5636  140.7246  166.7314 N.pl3   1  UNL1       -0.3076
      8 C         140.8984  139.9079  165.6634 C.3     1  UNL1        0.0901
      9 C         139.5973  139.2943  165.2386 C.3     1  UNL1        0.0921
     10 C         140.9043  141.2695  167.9637 C.ar    1  UNL1        0.0501
     11 C         140.0078  140.3914  168.7853 C.ar    1  UNL1        0.0147
     12 C         139.3486  140.9363  170.0176 C.ar    1  UNL1        0.0036
     13 C         139.5858  142.3593  170.4282 C.ar    1  UNL1        0.0297
     14 C         140.4823  143.2375  169.6065 C.ar    1  UNL1        0.1414
     15 F         140.7195  144.6606  170.0171 F       1  UNL1       -0.2041
     16 C         141.1416  142.6926  168.3742 C.ar    1  UNL1        0.0441
     17 C         138.7152  137.9939  161.6609 C.3     1  UNL1        0.0294
     18 C         137.5204  138.6499  161.0345 C.3     1  UNL1        0.0666
     19 S         137.5832  140.0928  160.6297 S.3     1  UNL1       -0.0756
     20 C         139.3795  142.7331  162.8360 C.ar    1  UNL1        0.2029
     21 N         138.0111  142.7245  163.4504 N.ar    1  UNL1       -0.1250
     22 N         137.1716  141.7345  162.6986 N.ar    1  UNL1       -0.1220
     23 C         138.0213  141.1311  161.6197 C.ar    1  UNL1        0.1933
     24 N         139.3858  141.7482  161.7046 N.ar    1  UNL1       -0.2860
     25 C         140.5519  141.4355  160.8143 C.3     1  UNL1        0.1341
     26 C         139.8565  145.8736  162.0879 C.3     1  UNL1        0.0556
     27 C         140.7574  145.0216  162.9320 C.ar    1  UNL1        0.1001
     28 N         142.0358  145.4635  163.5805 N.ar    1  UNL1       -0.2085
     29 C         142.6066  144.2932  164.3251 C.ar    1  UNL1        0.2849
     30 O         141.6810  143.1279  164.1369 O.2     1  UNL1       -0.4283
     31 C         140.5382  143.5781  163.2759 C.ar    1  UNL1        0.1964
@<TRIPOS>BOND
     1    26    27    1
     2    27    28   ar
     3    28    29   ar
     4    29    30   ar
     5    30    31   ar
     6    31    20    1
     7    20    21   ar
     8    21    22   ar
     9    22    23   ar
    10    23    19    1
    11    19    18    1
    12    18    17    1
    13    17     1    1
    14     1     2    1
    15     2     3    1
    16     3     4    1
    17     4     5    1
    18     5     6    1
    19     6     7    1
    20     7    10    1
    21    10    11   ar
    22    11    12   ar
    23    12    13   ar
    24    13    14   ar
    25    14    15    1
    26    14    16   ar
    27     7     8    1
    28     8     9    1
    29    23    24   ar
    30    24    25    1
    31    31    27   ar
    32    24    20   ar
    33     9     2    1
    34     8     4    1
    35    16    10   ar
@<TRIPOS>MOLECULE
*****
 31 35 0 0 0
SMALL
GASTEIGER

@<TRIPOS>ATOM
      1 C         142.9129  145.0854  163.5760 C.3     1  UNL1        0.0731
      2 N         141.5600  144.4433  163.4903 N.3     1  UNL1       -0.2712
      3 C         140.2982  145.1050  163.0213 C.3     1  UNL1        0.0738
      4 C         139.1897  144.0974  163.0997 C.3     1  UNL1        0.0372
      5 C         137.7248  143.8836  162.8582 C.3     1  UNL1        0.0245
      6 C         137.3962  142.4671  163.2264 C.3     1  UNL1        0.0909
      7 N         138.6581  141.8054  163.6955 N.pl3   1  UNL1       -0.3076
      8 C         139.7665  142.8130  163.6171 C.3     1  UNL1        0.0901
      9 C         141.2315  143.0268  163.8585 C.3     1  UNL1        0.0921
     10 C         138.7886  140.3855  164.1611 C.ar    1  UNL1        0.0501
     11 C         138.0999  139.9419  165.4176 C.ar    1  UNL1        0.0147
     12 C         138.2304  138.5220  165.8832 C.ar    1  UNL1        0.0036
     13 C         139.0497  137.5457  165.0923 C.ar    1  UNL1        0.0297
     14 C         139.7384  137.9892  163.8357 C.ar    1  UNL1        0.1414
     15 F         140.5576  137.0129  163.0448 F       1  UNL1       -0.2041
     16 C         139.6079  139.4091  163.3701 C.ar    1  UNL1        0.0441
     17 C         144.0760  144.4847  162.8436 C.3     1  UNL1        0.0294
     18 C         144.0967  143.0146  162.5462 C.3     1  UNL1        0.0666
     19 S         144.9203  142.0897  163.3924 S.3     1  UNL1       -0.0756
     20 C         143.1312  140.1696  166.2521 C.ar    1  UNL1        0.2029
     21 N         143.2884  139.0845  165.2284 N.ar    1  UNL1       -0.1250
     22 N         143.9778  139.6717  164.0326 N.ar    1  UNL1       -0.1220
     23 C         144.2466  141.1198  164.3172 C.ar    1  UNL1        0.1933
     24 N         143.7234  141.4275  165.6889 N.ar    1  UNL1       -0.2860
     25 C         143.7821  142.7592  166.3767 C.3     1  UNL1        0.1341
     26 C         140.4516  141.7184  167.2869 C.3     1  UNL1        0.0556
     27 C         141.2620  140.7345  168.0776 C.ar    1  UNL1        0.1001
     28 N         140.9831  140.2898  169.4827 N.ar    1  UNL1       -0.2085
     29 C         142.0424  139.3031  169.8755 C.ar    1  UNL1        0.2849
     30 O         142.9760  139.1379  168.7131 O.2     1  UNL1       -0.4283
     31 C         142.4937  140.0226  167.6020 C.ar    1  UNL1        0.1964
@<TRIPOS>BOND
     1    26    27    1
     2    27    28   ar
     3    28    29   ar
     4    29    30   ar
     5    30    31   ar
     6    31    20    1
     7    20    21   ar
     8    21    22   ar
     9    22    23   ar
    10    23    19    1
    11    19    18    1
    12    18    17    1
    13    17     1    1
    14     1     2    1
    15     2     3    1
    16     3     4    1
    17     4     5    1
    18     5     6    1
    19     6     7    1
    20     7    10    1
    21    10    11   ar
    22    11    12   ar
    23    12    13   ar
    24    13    14   ar
    25    14    15    1
    26    14    16   ar
    27     7     8    1
    28     8     9    1
    29    23    24   ar
    30    24    25    1
    31    31    27   ar
    32    24    20   ar
    33     9     2    1
    34     8     4    1
    35    16    10   ar
@<TRIPOS>MOLECULE
*****
 31 35 0 0 0
SMALL
GASTEIGER

@<TRIPOS>ATOM
      1 C         143.5239  138.8539  163.1293 C.3     1  UNL1        0.0731
      2 N         142.2857  138.9248  163.9730 N.3     1  UNL1       -0.2712
      3 C         140.9982  138.2009  163.7118 C.3     1  UNL1        0.0738
      4 C         140.0344  138.5608  164.8034 C.3     1  UNL1        0.0372
      5 C         138.6430  138.3358  165.3166 C.3     1  UNL1        0.0245
      6 C         138.4749  139.1431  166.5697 C.3     1  UNL1        0.0909
      7 N         139.7626  139.8669  166.8309 N.pl3   1  UNL1       -0.3076
      8 C         140.7263  139.5071  165.7393 C.3     1  UNL1        0.0901
      9 C         142.1177  139.7320  165.2261 C.3     1  UNL1        0.0921
     10 C         140.0380  140.7888  167.9817 C.ar    1  UNL1        0.0501
     11 C         140.2069  142.2596  167.7407 C.ar    1  UNL1        0.0147
     12 C         140.4823  143.1815  168.8915 C.ar    1  UNL1        0.0036
     13 C         140.5888  142.6325  170.2833 C.ar    1  UNL1        0.0297
     14 C         140.4200  141.1616  170.5244 C.ar    1  UNL1        0.1414
     15 F         140.5265  140.6126  171.9162 F       1  UNL1       -0.2041
     16 C         140.1445  140.2398  169.3736 C.ar    1  UNL1        0.0441
     17 C         144.8702  139.0742  163.7531 C.3     1  UNL1        0.0294
     18 C         145.3344  140.4664  164.0635 C.3     1  UNL1        0.0666
     19 S         145.1646  141.5574  163.0482 S.3     1  UNL1       -0.0756
     20 C         142.2342  144.1002  163.1620 C.ar    1  UNL1        0.2029
     21 N         143.1491  144.6651  164.2079 N.ar    1  UNL1       -0.1250
     22 N         144.3581  143.7814  164.2926 N.ar    1  UNL1       -0.1220
     23 C         144.1905  142.6702  163.2990 C.ar    1  UNL1        0.1933
     24 N         142.8780  142.8672  162.6002 N.ar    1  UNL1       -0.2860
     25 C         142.3090  141.9860  161.5280 C.3     1  UNL1        0.1341
     26 C         139.3045  142.8826  163.9261 C.3     1  UNL1        0.0556
     27 C         139.5619  144.1088  163.1013 C.ar    1  UNL1        0.1001
     28 N         138.5179  144.9906  162.4830 N.ar    1  UNL1       -0.2085
     29 C         139.2192  146.0952  161.7496 C.ar    1  UNL1        0.2849
     30 O         140.6968  145.8961  161.9147 O.2     1  UNL1       -0.4283
     31 C         140.9085  144.6685  162.7501 C.ar    1  UNL1        0.1964
@<TRIPOS>BOND
     1    26    27    1
     2    27    28   ar
     3    28    29   ar
     4    29    30   ar
     5    30    31   ar
     6    31    20    1
     7    20    21   ar
     8    21    22   ar
     9    22    23   ar
    10    23    19    1
    11    19    18    1
    12    18    17    1
    13    17     1    1
    14     1     2    1
    15     2     3    1
    16     3     4    1
    17     4     5    1
    18     5     6    1
    19     6     7    1
    20     7    10    1
    21    10    11   ar
    22    11    12   ar
    23    12    13   ar
    24    13    14   ar
    25    14    15    1
    26    14    16   ar
    27     7     8    1
    28     8     9    1
    29    23    24   ar
    30    24    25    1
    31    31    27   ar
    32    24    20   ar
    33     9     2    1
    34     8     4    1
    35    16    10   ar
@<TRIPOS>MOLECULE
*****
 31 35 0 0 0
SMALL
GASTEIGER

@<TRIPOS>ATOM
      1 C         137.9036  139.3440  161.4289 C.3     1  UNL1        0.0731
      2 N         138.1735  140.6041  162.1968 N.3     1  UNL1       -0.2712
      3 C         137.1384  141.5343  162.7563 C.3     1  UNL1        0.0738
      4 C         137.8510  142.6602  163.4452 C.3     1  UNL1        0.0372
      5 C         137.6517  143.9310  164.2168 C.3     1  UNL1        0.0245
      6 C         139.0040  144.4820  164.5599 C.3     1  UNL1        0.0909
      7 N         140.0391  143.5516  164.0003 N.pl3   1  UNL1       -0.3076
      8 C         139.3265  142.4258  163.3114 C.3     1  UNL1        0.0901
      9 C         139.5258  141.1550  162.5398 C.3     1  UNL1        0.0921
     10 C         141.5258  143.7180  164.1103 C.ar    1  UNL1        0.0501
     11 C         142.1497  145.0615  163.8739 C.ar    1  UNL1        0.0147
     12 C         143.6363  145.2279  163.9839 C.ar    1  UNL1        0.0036
     13 C         144.4992  144.0508  164.3302 C.ar    1  UNL1        0.0297
     14 C         143.8753  142.7073  164.5666 C.ar    1  UNL1        0.1414
     15 F         144.7382  141.5302  164.9130 F       1  UNL1       -0.2041
     16 C         142.3887  142.5409  164.4567 C.ar    1  UNL1        0.0441
     17 C         138.4428  138.0345  161.9232 C.3     1  UNL1        0.0294
     18 C         138.8622  137.8888  163.3561 C.3     1  UNL1        0.0666
     19 S         140.3157  137.7575  163.7024 S.3     1  UNL1       -0.0756
     20 C         141.0261  139.6128  167.0369 C.ar    1  UNL1        0.2029
     21 N         142.4083  139.5074  166.4637 N.ar    1  UNL1       -0.1250
     22 N         142.3104  138.7995  165.1448 N.ar    1  UNL1       -0.1220
     23 C         140.8677  138.4675  164.9029 C.ar    1  UNL1        0.1933
     24 N         140.0740  138.9701  166.0722 N.ar    1  UNL1       -0.2860
     25 C         138.5889  138.8510  166.2464 C.3     1  UNL1        0.1341
     26 C         140.4311  142.7838  167.5274 C.3     1  UNL1        0.0556
     27 C         140.3868  141.7068  168.5705 C.ar    1  UNL1        0.1001
     28 N         140.0613  141.8982  170.0221 N.ar    1  UNL1       -0.2085
     29 C         140.1335  140.5589  170.6939 C.ar    1  UNL1        0.2849
     30 O         140.5037  139.5398  169.6574 O.2     1  UNL1       -0.4283
     31 C         140.6603  140.2493  168.3450 C.ar    1  UNL1        0.1964
@<TRIPOS>BOND
     1    26    27    1
     2    27    28   ar
     3    28    29   ar
     4    29    30   ar
     5    30    31   ar
     6    31    20    1
     7    20    21   ar
     8    21    22   ar
     9    22    23   ar
    10    23    19    1
    11    19    18    1
    12    18    17    1
    13    17     1    1
    14     1     2    1
    15     2     3    1
    16     3     4    1
    17     4     5    1
    18     5     6    1
    19     6     7    1
    20     7    10    1
    21    10    11   ar
    22    11    12   ar
    23    12    13   ar
    24    13    14   ar
    25    14    15    1
    26    14    16   ar
    27     7     8    1
    28     8     9    1
    29    23    24   ar
    30    24    25    1
    31    31    27   ar
    32    24    20   ar
    33     9     2    1
    34     8     4    1
    35    16    10   ar
@<TRIPOS>MOLECULE
*****
 31 35 0 0 0
SMALL
GASTEIGER

@<TRIPOS>ATOM
      1 C         143.7508  137.9764  161.9078 C.3     1  UNL1        0.0731
      2 N         142.6587  138.1873  162.9143 N.3     1  UNL1       -0.2712
      3 C         141.3055  137.5404  162.8957 C.3     1  UNL1        0.0738
      4 C         140.5387  138.0355  164.0860 C.3     1  UNL1        0.0372
      5 C         139.2284  137.9416  164.8101 C.3     1  UNL1        0.0245
      6 C         139.2979  138.8365  166.0120 C.3     1  UNL1        0.0909
      7 N         140.6511  139.4835  166.0306 N.pl3   1  UNL1       -0.3076
      8 C         141.4180  138.9884  164.8403 C.3     1  UNL1        0.0901
      9 C         142.7282  139.0822  164.1161 C.3     1  UNL1        0.0921
     10 C         141.1499  140.4549  167.0589 C.ar    1  UNL1        0.0501
     11 C         142.4482  140.1988  167.7651 C.ar    1  UNL1        0.0147
     12 C         142.9470  141.1702  168.7934 C.ar    1  UNL1        0.0036
     13 C         142.1475  142.3978  169.1157 C.ar    1  UNL1        0.0297
     14 C         140.8490  142.6539  168.4095 C.ar    1  UNL1        0.1414
     15 F         140.0495  143.8814  168.7317 F       1  UNL1       -0.2041
     16 C         140.3503  141.6824  167.3811 C.ar    1  UNL1        0.0441
     17 C         143.5903  138.4912  160.5081 C.3     1  UNL1        0.0294
     18 C         144.1164  139.8476  160.1429 C.3     1  UNL1        0.0666
     19 S         143.3031  140.7576  159.2708 S.3     1  UNL1       -0.0756
     20 C         141.2418  143.4782  161.1187 C.ar    1  UNL1        0.2029
     21 N         142.2233  144.3227  160.3612 N.ar    1  UNL1       -0.1250
     22 N         143.1148  143.4063  159.5768 N.ar    1  UNL1       -0.1220
     23 C         142.6845  141.9955  159.8495 C.ar    1  UNL1        0.1933
     24 N         141.5269  142.0399  160.8024 N.ar    1  UNL1       -0.2860
     25 C         140.7848  140.8542  161.3440 C.3     1  UNL1        0.1341
     26 C         141.7001  144.9551  163.9925 C.3     1  UNL1        0.0556
     27 C         140.3752  144.6622  163.3531 C.ar    1  UNL1        0.1001
     28 N         139.0283  144.9968  163.9222 N.ar    1  UNL1       -0.2085
     29 C         137.9853  144.5247  162.9531 C.ar    1  UNL1        0.2849
     30 O         138.6875  143.8984  161.7849 O.2     1  UNL1       -0.4283
     31 C         140.1646  143.9834  162.0321 C.ar    1  UNL1        0.1964
@<TRIPOS>BOND
     1    26    27    1
     2    27    28   ar
     3    28    29   ar
     4    29    30   ar
     5    30    31   ar
     6    31    20    1
     7    20    21   ar
     8    21    22   ar
     9    22    23   ar
    10    23    19    1
    11    19    18    1
    12    18    17    1
    13    17     1    1
    14     1     2    1
    15     2     3    1
    16     3     4    1
    17     4     5    1
    18     5     6    1
    19     6     7    1
    20     7    10    1
    21    10    11   ar
    22    11    12   ar
    23    12    13   ar
    24    13    14   ar
    25    14    15    1
    26    14    16   ar
    27     7     8    1
    28     8     9    1
    29    23    24   ar
    30    24    25    1
    31    31    27   ar
    32    24    20   ar
    33     9     2    1
    34     8     4    1
    35    16    10   ar
