@<TRIPOS>MOLECULE
*****
 33 36 0 0 0
SMALL
GASTEIGER

@<TRIPOS>ATOM
      1 C         139.7514  142.1964  164.1782 C.ar    1  UNL1        0.0468
      2 C         139.0179  143.0825  165.1409 C.ar    1  UNL1        0.0144
      3 C         138.0039  144.0643  164.6331 C.ar    1  UNL1        0.0044
      4 C         137.7234  144.1600  163.1627 C.ar    1  UNL1        0.0367
      5 C         138.4568  143.2739  162.2000 C.ar    1  UNL1        0.1358
      6 C         139.4708  142.2922  162.7077 C.ar    1  UNL1        0.0268
      7 C         140.2044  141.4060  161.7450 C.3     1  UNL1        0.0541
      8 C         139.9238  141.5017  160.2746 C.3     1  UNL1        0.1200
      9 C         138.9098  142.4836  159.7669 C.3     1  UNL1        0.2250
     10 O         138.1763  143.3697  160.7296 O.3     1  UNL1       -0.4739
     11 C         143.8075  138.2690  166.2089 C.3     1  UNL1        0.0897
     12 N         142.7935  139.2509  165.7013 N.3     1  UNL1       -0.2686
     13 C         143.2111  140.6498  165.3568 C.3     1  UNL1        0.0938
     14 C         142.1970  141.6317  164.8491 C.3     1  UNL1        0.1081
     15 N         140.7655  141.2146  164.6859 N.pl3   1  UNL1       -0.3048
     16 C         140.3479  139.8157  165.0304 C.3     1  UNL1        0.1081
     17 C         141.3619  138.8338  165.5380 C.3     1  UNL1        0.0938
     18 N         140.6573  140.6156  159.3119 N.am    1  UNL1       -0.2986
     19 C         140.2509  139.1803  159.1548 C.2     1  UNL1        0.2474
     20 O         139.1110  138.6311  159.9603 O.2     1  UNL1       -0.2701
     21 H         141.4055  140.9761  158.7832 H       1  UNL1        0.1498
     22 C         140.9844  138.2942  158.1920 C.ar    1  UNL1        0.0727
     23 C         140.2494  137.6562  157.0507 C.ar    1  UNL1        0.0109
     24 C         140.9828  136.7701  156.0879 C.ar    1  UNL1        0.0579
     25 C         142.4513  136.5221  156.2665 C.ar    1  UNL1        0.2251
     26 N         143.1864  137.1601  157.4079 N.ar    1  UNL1       -0.2100
     27 C         142.4529  138.0462  158.3706 C.ar    1  UNL1        0.1065
     28 O         143.1849  135.6360  155.3038 O.3     1  UNL1       -0.4509
     29 C         142.6816  134.2503  155.0272 C.3     1  UNL1        0.3095
     30 C         142.6768  133.2222  156.1194 C.3     1  UNL1        0.4381
     31 F         142.6719  132.1941  157.2117 F       1  UNL1       -0.1663
     32 F         141.2439  132.9023  155.8120 F       1  UNL1       -0.1663
     33 F         144.1096  133.5421  156.4269 F       1  UNL1       -0.1663
@<TRIPOS>BOND
     1    11    12    1
     2    12    13    1
     3    13    14    1
     4    14    15    1
     5    15     1    1
     6     1     2   ar
     7     2     3   ar
     8     3     4   ar
     9     4     5   ar
    10     5     6   ar
    11     6     7    1
    12     7     8    1
    13     8    18    1
    14    18    19   am
    15    19    20    2
    16    19    22    1
    17    22    23   ar
    18    23    24   ar
    19    24    25   ar
    20    25    28    1
    21    28    29    1
    22    29    30    1
    23    30    31    1
    24    30    32    1
    25    30    33    1
    26    25    26   ar
    27    26    27   ar
    28     8     9    1
    29     9    10    1
    30    15    16    1
    31    16    17    1
    32    17    12    1
    33     6     1   ar
    34    27    22   ar
    35    10     5    1
    36    18    21    1
@<TRIPOS>MOLECULE
*****
 33 36 0 0 0
SMALL
GASTEIGER

@<TRIPOS>ATOM
      1 C         142.0542  142.2664  164.2754 C.ar    1  UNL1        0.0468
      2 C         143.2025  142.6156  165.1750 C.ar    1  UNL1        0.0144
      3 C         144.0909  143.7769  164.8406 C.ar    1  UNL1        0.0044
      4 C         143.8311  144.5891  163.6065 C.ar    1  UNL1        0.0367
      5 C         142.6828  144.2398  162.7069 C.ar    1  UNL1        0.1358
      6 C         141.7943  143.0785  163.0413 C.ar    1  UNL1        0.0268
      7 C         140.6459  142.7292  162.1417 C.3     1  UNL1        0.0541
      8 C         140.3860  143.5413  160.9076 C.3     1  UNL1        0.1200
      9 C         141.2746  144.7027  160.5732 C.3     1  UNL1        0.2250
     10 O         142.4229  145.0520  161.4728 O.3     1  UNL1       -0.4739
     11 C         138.5003  137.6208  165.6130 C.3     1  UNL1        0.0897
     12 N         139.3887  138.7822  165.2786 N.3     1  UNL1       -0.2686
     13 C         139.0465  140.1557  165.7751 C.3     1  UNL1        0.0938
     14 C         139.9350  141.3171  165.4407 C.3     1  UNL1        0.1081
     15 N         141.1657  141.1050  164.6098 N.pl3   1  UNL1       -0.3048
     16 C         141.5079  139.7315  164.1134 C.3     1  UNL1        0.1081
     17 C         140.6195  138.5701  164.4477 C.3     1  UNL1        0.0938
     18 N         139.2377  143.1921  160.0080 N.am    1  UNL1       -0.2986
     19 C         139.4866  142.4529  158.7267 C.2     1  UNL1        0.2474
     20 O         140.8838  142.0629  158.3451 O.2     1  UNL1       -0.2701
     21 H         138.3207  143.4481  160.2585 H       1  UNL1        0.1498
     22 C         138.3382  142.1037  157.8271 C.ar    1  UNL1        0.0727
     23 C         137.9170  143.0538  156.7455 C.ar    1  UNL1        0.0109
     24 C         136.7687  142.7046  155.8459 C.ar    1  UNL1        0.0579
     25 C         136.0415  141.4054  156.0279 C.ar    1  UNL1        0.2251
     26 N         136.4627  140.4553  157.1095 N.ar    1  UNL1       -0.2100
     27 C         137.6111  140.8045  158.0091 C.ar    1  UNL1        0.1065
     28 O         134.8931  141.0562  155.1282 O.3     1  UNL1       -0.4509
     29 C         134.0319  139.8679  155.4384 C.3     1  UNL1        0.3095
     30 C         132.9717  139.9653  156.4951 C.3     1  UNL1        0.4381
     31 F         131.9116  140.0627  157.5517 F       1  UNL1       -0.1663
     32 F         132.7098  141.3887  156.1010 F       1  UNL1       -0.1663
     33 F         133.2337  138.5419  156.8891 F       1  UNL1       -0.1663
@<TRIPOS>BOND
     1    11    12    1
     2    12    13    1
     3    13    14    1
     4    14    15    1
     5    15     1    1
     6     1     2   ar
     7     2     3   ar
     8     3     4   ar
     9     4     5   ar
    10     5     6   ar
    11     6     7    1
    12     7     8    1
    13     8    18    1
    14    18    19   am
    15    19    20    2
    16    19    22    1
    17    22    23   ar
    18    23    24   ar
    19    24    25   ar
    20    25    28    1
    21    28    29    1
    22    29    30    1
    23    30    31    1
    24    30    32    1
    25    30    33    1
    26    25    26   ar
    27    26    27   ar
    28     8     9    1
    29     9    10    1
    30    15    16    1
    31    16    17    1
    32    17    12    1
    33     6     1   ar
    34    27    22   ar
    35    10     5    1
    36    18    21    1
@<TRIPOS>MOLECULE
*****
 33 36 0 0 0
SMALL
GASTEIGER

@<TRIPOS>ATOM
      1 C         140.8369  142.4400  165.9861 C.ar    1  UNL1        0.0468
      2 C         140.6156  142.8013  167.4250 C.ar    1  UNL1        0.0144
      3 C         140.9265  141.8070  168.5042 C.ar    1  UNL1        0.0044
      4 C         141.4587  140.4515  168.1445 C.ar    1  UNL1        0.0367
      5 C         141.6801  140.0903  166.7056 C.ar    1  UNL1        0.1358
      6 C         141.3692  141.0845  165.6264 C.ar    1  UNL1        0.0268
      7 C         141.5906  140.7233  164.1874 C.3     1  UNL1        0.0541
      8 C         142.1228  139.3679  163.8277 C.3     1  UNL1        0.1200
      9 C         142.4337  138.3736  164.9071 C.3     1  UNL1        0.2250
     10 O         142.2124  138.7348  166.3460 O.3     1  UNL1       -0.4739
     11 C         139.5934  146.4170  161.6689 C.3     1  UNL1        0.0897
     12 N         139.9043  145.4228  162.7482 N.3     1  UNL1       -0.2686
     13 C         138.8005  144.6160  163.3652 C.3     1  UNL1        0.0938
     14 C         139.1114  143.6217  164.4445 C.3     1  UNL1        0.1081
     15 N         140.5260  143.4343  164.9068 N.pl3   1  UNL1       -0.3048
     16 C         141.6298  144.2411  164.2897 C.3     1  UNL1        0.1081
     17 C         141.3189  145.2353  163.2105 C.3     1  UNL1        0.0938
     18 N         142.3442  139.0066  162.3889 N.am    1  UNL1       -0.2986
     19 C         141.1705  138.7475  161.4915 C.2     1  UNL1        0.2474
     20 O         139.7754  138.8497  162.0330 O.2     1  UNL1       -0.2701
     21 H         143.2598  138.9396  162.0334 H       1  UNL1        0.1498
     22 C         141.3919  138.3863  160.0525 C.ar    1  UNL1        0.0727
     23 C         140.2676  138.5083  159.0671 C.ar    1  UNL1        0.0109
     24 C         140.4890  138.1471  157.6282 C.ar    1  UNL1        0.0579
     25 C         141.8347  137.6639  157.1747 C.ar    1  UNL1        0.2251
     26 N         142.9590  137.5419  158.1602 N.ar    1  UNL1       -0.2100
     27 C         142.7376  137.9031  159.5991 C.ar    1  UNL1        0.1065
     28 O         142.0561  137.3026  155.7358 O.3     1  UNL1       -0.4509
     29 C         142.8222  136.0621  155.3833 C.3     1  UNL1        0.3095
     30 C         142.2696  134.7133  155.7374 C.3     1  UNL1        0.4381
     31 F         141.7170  133.3646  156.0915 F       1  UNL1       -0.1663
     32 F         143.6185  134.2930  156.2412 F       1  UNL1       -0.1663
     33 F         140.9208  135.1337  155.2336 F       1  UNL1       -0.1663
@<TRIPOS>BOND
     1    11    12    1
     2    12    13    1
     3    13    14    1
     4    14    15    1
     5    15     1    1
     6     1     2   ar
     7     2     3   ar
     8     3     4   ar
     9     4     5   ar
    10     5     6   ar
    11     6     7    1
    12     7     8    1
    13     8    18    1
    14    18    19   am
    15    19    20    2
    16    19    22    1
    17    22    23   ar
    18    23    24   ar
    19    24    25   ar
    20    25    28    1
    21    28    29    1
    22    29    30    1
    23    30    31    1
    24    30    32    1
    25    30    33    1
    26    25    26   ar
    27    26    27   ar
    28     8     9    1
    29     9    10    1
    30    15    16    1
    31    16    17    1
    32    17    12    1
    33     6     1   ar
    34    27    22   ar
    35    10     5    1
    36    18    21    1
@<TRIPOS>MOLECULE
*****
 33 36 0 0 0
SMALL
GASTEIGER

@<TRIPOS>ATOM
      1 C         139.2447  140.7064  164.2110 C.ar    1  UNL1        0.0468
      2 C         138.2872  140.4175  165.3288 C.ar    1  UNL1        0.0144
      3 C         138.1681  139.0249  165.8733 C.ar    1  UNL1        0.0044
      4 C         139.0066  137.9212  165.2999 C.ar    1  UNL1        0.0367
      5 C         139.9641  138.2101  164.1820 C.ar    1  UNL1        0.1358
      6 C         140.0832  139.6027  163.6376 C.ar    1  UNL1        0.0268
      7 C         141.0408  139.8917  162.5197 C.3     1  UNL1        0.0541
      8 C         141.8793  138.7880  161.9463 C.3     1  UNL1        0.1200
      9 C         141.7602  137.3953  162.4908 C.3     1  UNL1        0.2250
     10 O         140.8026  137.1064  163.6086 O.3     1  UNL1       -0.4739
     11 C         139.7211  146.2769  162.0331 C.3     1  UNL1        0.0897
     12 N         139.6020  144.8843  162.5776 N.3     1  UNL1       -0.2686
     13 C         140.5116  144.4299  163.6804 C.3     1  UNL1        0.0938
     14 C         140.3925  143.0372  164.2249 C.3     1  UNL1        0.1081
     15 N         139.3638  142.0991  163.6665 N.pl3   1  UNL1       -0.3048
     16 C         138.4543  142.5535  162.5637 C.3     1  UNL1        0.1081
     17 C         138.5734  143.9461  162.0192 C.3     1  UNL1        0.0938
     18 N         142.8369  139.0769  160.8285 N.am    1  UNL1       -0.2986
     19 C         142.3196  139.5384  159.4983 C.2     1  UNL1        0.2474
     20 O         140.8449  139.7110  159.2859 O.2     1  UNL1       -0.2701
     21 H         143.8048  138.9636  160.9679 H       1  UNL1        0.1498
     22 C         143.2773  139.8273  158.3805 C.ar    1  UNL1        0.0727
     23 C         144.0989  141.0821  158.4022 C.ar    1  UNL1        0.0109
     24 C         145.0565  141.3711  157.2844 C.ar    1  UNL1        0.0579
     25 C         145.1925  140.4052  156.1449 C.ar    1  UNL1        0.2251
     26 N         144.3710  139.1503  156.1232 N.ar    1  UNL1       -0.2100
     27 C         143.4134  138.8614  157.2410 C.ar    1  UNL1        0.1065
     28 O         146.1502  140.6941  155.0271 O.3     1  UNL1       -0.4509
     29 C         146.9672  141.9519  155.0457 C.3     1  UNL1        0.3095
     30 C         148.4242  141.8946  155.3975 C.3     1  UNL1        0.4381
     31 F         149.8812  141.8374  155.7494 F       1  UNL1       -0.1663
     32 F         148.7443  141.4534  154.0001 F       1  UNL1       -0.1663
     33 F         148.1041  142.3359  156.7949 F       1  UNL1       -0.1663
@<TRIPOS>BOND
     1    11    12    1
     2    12    13    1
     3    13    14    1
     4    14    15    1
     5    15     1    1
     6     1     2   ar
     7     2     3   ar
     8     3     4   ar
     9     4     5   ar
    10     5     6   ar
    11     6     7    1
    12     7     8    1
    13     8    18    1
    14    18    19   am
    15    19    20    2
    16    19    22    1
    17    22    23   ar
    18    23    24   ar
    19    24    25   ar
    20    25    28    1
    21    28    29    1
    22    29    30    1
    23    30    31    1
    24    30    32    1
    25    30    33    1
    26    25    26   ar
    27    26    27   ar
    28     8     9    1
    29     9    10    1
    30    15    16    1
    31    16    17    1
    32    17    12    1
    33     6     1   ar
    34    27    22   ar
    35    10     5    1
    36    18    21    1
@<TRIPOS>MOLECULE
*****
 33 36 0 0 0
SMALL
GASTEIGER

@<TRIPOS>ATOM
      1 C         141.0628  143.1846  157.7050 C.ar    1  UNL1        0.0468
      2 C         141.0548  143.8241  156.3482 C.ar    1  UNL1        0.0144
      3 C         140.6492  145.2605  156.1986 C.ar    1  UNL1        0.0044
      4 C         140.2517  146.0572  157.4057 C.ar    1  UNL1        0.0367
      5 C         140.2597  145.4176  158.7625 C.ar    1  UNL1        0.1358
      6 C         140.6653  143.9813  158.9121 C.ar    1  UNL1        0.0268
      7 C         140.6733  143.3417  160.2689 C.3     1  UNL1        0.0541
      8 C         140.2758  144.1384  161.4760 C.3     1  UNL1        0.1200
      9 C         139.8702  145.5748  161.3263 C.3     1  UNL1        0.2250
     10 O         139.8622  146.2144  159.9696 O.3     1  UNL1       -0.4739
     11 C         142.6852  137.4392  158.3037 C.3     1  UNL1        0.0897
     12 N         142.2796  138.8755  158.1540 N.3     1  UNL1       -0.2686
     13 C         140.8408  139.2278  157.9180 C.3     1  UNL1        0.0938
     14 C         140.4352  140.6642  157.7683 C.3     1  UNL1        0.1081
     15 N         141.4684  141.7482  157.8546 N.pl3   1  UNL1       -0.3048
     16 C         142.9072  141.3958  158.0906 C.3     1  UNL1        0.1081
     17 C         143.3128  139.9595  158.2403 C.3     1  UNL1        0.0938
     18 N         140.2838  143.4988  162.8328 N.am    1  UNL1       -0.2986
     19 C         141.5494  143.4621  163.6372 C.2     1  UNL1        0.2474
     20 O         142.8069  144.0650  163.0848 O.2     1  UNL1       -0.2701
     21 H         139.4585  143.1031  163.1953 H       1  UNL1        0.1498
     22 C         141.5574  142.8225  164.9940 C.ar    1  UNL1        0.0727
     23 C         142.8358  142.7330  165.7734 C.ar    1  UNL1        0.0109
     24 C         142.8439  142.0934  167.1301 C.ar    1  UNL1        0.0579
     25 C         141.5734  141.5433  167.7075 C.ar    1  UNL1        0.2251
     26 N         140.2950  141.6329  166.9281 N.ar    1  UNL1       -0.2100
     27 C         140.2869  142.2724  165.5713 C.ar    1  UNL1        0.1065
     28 O         141.5814  140.9037  169.0643 O.3     1  UNL1       -0.4509
     29 C         141.4171  141.7487  170.2927 C.3     1  UNL1        0.3095
     30 C         140.8422  143.1297  170.1818 C.3     1  UNL1        0.4381
     31 F         140.2674  144.5106  170.0708 F       1  UNL1       -0.1663
     32 F         142.2257  143.7083  170.2155 F       1  UNL1       -0.1663
     33 F         139.4588  142.5510  170.1480 F       1  UNL1       -0.1663
@<TRIPOS>BOND
     1    11    12    1
     2    12    13    1
     3    13    14    1
     4    14    15    1
     5    15     1    1
     6     1     2   ar
     7     2     3   ar
     8     3     4   ar
     9     4     5   ar
    10     5     6   ar
    11     6     7    1
    12     7     8    1
    13     8    18    1
    14    18    19   am
    15    19    20    2
    16    19    22    1
    17    22    23   ar
    18    23    24   ar
    19    24    25   ar
    20    25    28    1
    21    28    29    1
    22    29    30    1
    23    30    31    1
    24    30    32    1
    25    30    33    1
    26    25    26   ar
    27    26    27   ar
    28     8     9    1
    29     9    10    1
    30    15    16    1
    31    16    17    1
    32    17    12    1
    33     6     1   ar
    34    27    22   ar
    35    10     5    1
    36    18    21    1
@<TRIPOS>MOLECULE
*****
 33 36 0 0 0
SMALL
GASTEIGER

@<TRIPOS>ATOM
      1 C         140.7499  141.6333  166.7520 C.ar    1  UNL1        0.0468
      2 C         140.6077  141.9569  168.2098 C.ar    1  UNL1        0.0144
      3 C         139.7702  141.0813  169.0941 C.ar    1  UNL1        0.0044
      4 C         139.0749  139.8823  168.5207 C.ar    1  UNL1        0.0367
      5 C         139.2171  139.5587  167.0629 C.ar    1  UNL1        0.1358
      6 C         140.0546  140.4342  166.1786 C.ar    1  UNL1        0.0268
      7 C         140.1969  140.1106  164.7208 C.3     1  UNL1        0.0541
      8 C         139.5016  138.9115  164.1474 C.3     1  UNL1        0.1200
      9 C         138.6641  138.0360  165.0318 C.3     1  UNL1        0.2250
     10 O         138.5219  138.3596  166.4895 O.3     1  UNL1       -0.4739
     11 C         144.0998  145.1353  163.2145 C.3     1  UNL1        0.0897
     12 N         143.2624  144.2598  164.0989 N.3     1  UNL1       -0.2686
     13 C         143.9176  143.2362  164.9781 C.3     1  UNL1        0.0938
     14 C         143.0800  142.3607  165.8625 C.3     1  UNL1        0.1081
     15 N         141.5874  142.5088  165.8676 N.pl3   1  UNL1       -0.3048
     16 C         140.9322  143.5324  164.9885 C.3     1  UNL1        0.1081
     17 C         141.7696  144.4079  164.1041 C.3     1  UNL1        0.0938
     18 N         139.6438  138.5880  162.6897 N.am    1  UNL1       -0.2986
     19 C         140.9831  138.7008  162.0235 C.2     1  UNL1        0.2474
     20 O         142.1801  139.1372  162.8151 O.2     1  UNL1       -0.2701
     21 H         138.8582  138.3015  162.1701 H       1  UNL1        0.1498
     22 C         141.1252  138.3772  160.5657 C.ar    1  UNL1        0.0727
     23 C         142.4578  137.9621  160.0161 C.ar    1  UNL1        0.0109
     24 C         142.6000  137.6385  158.5584 C.ar    1  UNL1        0.0579
     25 C         141.4097  137.7300  157.6503 C.ar    1  UNL1        0.2251
     26 N         140.0772  138.1451  158.1999 N.ar    1  UNL1       -0.2100
     27 C         139.9349  138.4687  159.6576 C.ar    1  UNL1        0.1065
     28 O         141.5519  137.4064  156.1925 O.3     1  UNL1       -0.4509
     29 C         141.4753  135.9817  155.7296 C.3     1  UNL1        0.3095
     30 C         142.7000  135.1162  155.7605 C.3     1  UNL1        0.4381
     31 F         143.9247  134.2507  155.7914 F       1  UNL1       -0.1663
     32 F         143.5499  136.3070  155.4294 F       1  UNL1       -0.1663
     33 F         141.8502  133.9254  156.0916 F       1  UNL1       -0.1663
@<TRIPOS>BOND
     1    11    12    1
     2    12    13    1
     3    13    14    1
     4    14    15    1
     5    15     1    1
     6     1     2   ar
     7     2     3   ar
     8     3     4   ar
     9     4     5   ar
    10     5     6   ar
    11     6     7    1
    12     7     8    1
    13     8    18    1
    14    18    19   am
    15    19    20    2
    16    19    22    1
    17    22    23   ar
    18    23    24   ar
    19    24    25   ar
    20    25    28    1
    21    28    29    1
    22    29    30    1
    23    30    31    1
    24    30    32    1
    25    30    33    1
    26    25    26   ar
    27    26    27   ar
    28     8     9    1
    29     9    10    1
    30    15    16    1
    31    16    17    1
    32    17    12    1
    33     6     1   ar
    34    27    22   ar
    35    10     5    1
    36    18    21    1
@<TRIPOS>MOLECULE
*****
 33 36 0 0 0
SMALL
GASTEIGER

@<TRIPOS>ATOM
      1 C         140.8327  141.3672  167.3360 C.ar    1  UNL1        0.0468
      2 C         140.7480  141.7348  168.7878 C.ar    1  UNL1        0.0144
      3 C         141.5819  141.0024  169.7968 C.ar    1  UNL1        0.0044
      4 C         142.5005  139.9023  169.3540 C.ar    1  UNL1        0.0367
      5 C         142.5852  139.5347  167.9023 C.ar    1  UNL1        0.1358
      6 C         141.7513  140.2671  166.8933 C.ar    1  UNL1        0.0268
      7 C         141.8359  139.8994  165.4415 C.3     1  UNL1        0.0541
      8 C         142.7545  138.7993  164.9987 C.3     1  UNL1        0.1200
      9 C         143.5884  138.0669  166.0078 C.3     1  UNL1        0.2250
     10 O         143.5037  138.4346  167.4596 O.3     1  UNL1       -0.4739
     11 C         137.4971  144.2968  163.2997 C.3     1  UNL1        0.0897
     12 N         138.3310  143.5644  164.3088 N.3     1  UNL1       -0.2686
     13 C         139.4171  144.2862  165.0500 C.3     1  UNL1        0.0938
     14 C         140.2510  143.5538  166.0591 C.3     1  UNL1        0.1081
     15 N         139.9988  142.0996  166.3269 N.pl3   1  UNL1       -0.3048
     16 C         138.9127  141.3778  165.5857 C.3     1  UNL1        0.1081
     17 C         138.0788  142.1102  164.5767 C.3     1  UNL1        0.0938
     18 N         142.8392  138.4317  163.5470 N.am    1  UNL1       -0.2986
     19 C         143.1460  139.4843  162.5234 C.2     1  UNL1        0.2474
     20 O         143.3681  140.9046  162.9515 O.2     1  UNL1       -0.2701
     21 H         142.6934  137.4995  163.2660 H       1  UNL1        0.1498
     22 C         143.2307  139.1166  161.0715 C.ar    1  UNL1        0.0727
     23 C         142.6853  137.8020  160.5978 C.ar    1  UNL1        0.0109
     24 C         142.7700  137.4343  159.1461 C.ar    1  UNL1        0.0579
     25 C         143.4000  138.3811  158.1681 C.ar    1  UNL1        0.2251
     26 N         143.9454  139.6957  158.6418 N.ar    1  UNL1       -0.2100
     27 C         143.8607  140.0634  160.0936 C.ar    1  UNL1        0.1065
     28 O         143.4847  138.0134  156.7163 O.3     1  UNL1       -0.4509
     29 C         142.4335  137.1372  156.1020 C.3     1  UNL1        0.3095
     30 C         142.7305  135.6941  155.8207 C.3     1  UNL1        0.4381
     31 F         143.0275  134.2510  155.5394 F       1  UNL1       -0.1663
     32 F         141.2612  135.4133  155.7100 F       1  UNL1       -0.1663
     33 F         144.1998  135.9749  155.9315 F       1  UNL1       -0.1663
@<TRIPOS>BOND
     1    11    12    1
     2    12    13    1
     3    13    14    1
     4    14    15    1
     5    15     1    1
     6     1     2   ar
     7     2     3   ar
     8     3     4   ar
     9     4     5   ar
    10     5     6   ar
    11     6     7    1
    12     7     8    1
    13     8    18    1
    14    18    19   am
    15    19    20    2
    16    19    22    1
    17    22    23   ar
    18    23    24   ar
    19    24    25   ar
    20    25    28    1
    21    28    29    1
    22    29    30    1
    23    30    31    1
    24    30    32    1
    25    30    33    1
    26    25    26   ar
    27    26    27   ar
    28     8     9    1
    29     9    10    1
    30    15    16    1
    31    16    17    1
    32    17    12    1
    33     6     1   ar
    34    27    22   ar
    35    10     5    1
    36    18    21    1
@<TRIPOS>MOLECULE
*****
 33 36 0 0 0
SMALL
GASTEIGER

@<TRIPOS>ATOM
      1 C         140.6955  136.4539  154.4522 C.ar    1  UNL1        0.0468
      2 C         141.2205  135.2627  153.7071 C.ar    1  UNL1        0.0144
      3 C         142.3611  134.4684  154.2709 C.ar    1  UNL1        0.0044
      4 C         142.9768  134.8653  155.5799 C.ar    1  UNL1        0.0367
      5 C         142.4518  136.0565  156.3250 C.ar    1  UNL1        0.1358
      6 C         141.3112  136.8509  155.7612 C.ar    1  UNL1        0.0268
      7 C         140.7861  138.0422  156.5063 C.3     1  UNL1        0.0541
      8 C         141.4018  138.4391  157.8153 C.3     1  UNL1        0.1200
      9 C         142.5425  137.6447  158.3791 C.3     1  UNL1        0.2250
     10 O         143.0675  136.4535  157.6340 O.3     1  UNL1       -0.4739
     11 C         136.1328  139.6314  152.1971 C.3     1  UNL1        0.0897
     12 N         137.2734  138.8371  152.7609 N.3     1  UNL1       -0.2686
     13 C         138.6182  138.8813  152.0978 C.3     1  UNL1        0.0938
     14 C         139.7589  138.0869  152.6616 C.3     1  UNL1        0.1081
     15 N         139.5548  137.2483  153.8884 N.pl3   1  UNL1       -0.3048
     16 C         138.2100  137.2041  154.5515 C.3     1  UNL1        0.1081
     17 C         137.0693  137.9984  153.9877 C.3     1  UNL1        0.0938
     18 N         140.8769  139.6304  158.5605 N.am    1  UNL1       -0.2986
     19 C         139.8115  139.4540  159.6016 C.2     1  UNL1        0.2474
     20 O         139.2711  138.0864  159.8976 O.2     1  UNL1       -0.2701
     21 H         141.2315  140.5280  158.3662 H       1  UNL1        0.1498
     22 C         139.2866  140.6454  160.3468 C.ar    1  UNL1        0.0727
     23 C         139.9778  141.9709  160.2242 C.ar    1  UNL1        0.0109
     24 C         139.4529  143.1622  160.9693 C.ar    1  UNL1        0.0579
     25 C         138.2368  143.0280  161.8370 C.ar    1  UNL1        0.2251
     26 N         137.5455  141.7024  161.9595 N.ar    1  UNL1       -0.2100
     27 C         138.0704  140.5111  161.2144 C.ar    1  UNL1        0.1065
     28 O         137.7118  144.2193  162.5821 O.3     1  UNL1       -0.4509
     29 C         138.6421  145.0562  163.4092 C.3     1  UNL1        0.3095
     30 C         138.9121  144.6882  164.8381 C.3     1  UNL1        0.4381
     31 F         139.1821  144.3203  166.2669 F       1  UNL1       -0.1663
     32 F         140.3646  145.0100  164.6465 F       1  UNL1       -0.1663
     33 F         137.4596  144.3665  165.0297 F       1  UNL1       -0.1663
@<TRIPOS>BOND
     1    11    12    1
     2    12    13    1
     3    13    14    1
     4    14    15    1
     5    15     1    1
     6     1     2   ar
     7     2     3   ar
     8     3     4   ar
     9     4     5   ar
    10     5     6   ar
    11     6     7    1
    12     7     8    1
    13     8    18    1
    14    18    19   am
    15    19    20    2
    16    19    22    1
    17    22    23   ar
    18    23    24   ar
    19    24    25   ar
    20    25    28    1
    21    28    29    1
    22    29    30    1
    23    30    31    1
    24    30    32    1
    25    30    33    1
    26    25    26   ar
    27    26    27   ar
    28     8     9    1
    29     9    10    1
    30    15    16    1
    31    16    17    1
    32    17    12    1
    33     6     1   ar
    34    27    22   ar
    35    10     5    1
    36    18    21    1
@<TRIPOS>MOLECULE
*****
 33 36 0 0 0
SMALL
GASTEIGER

@<TRIPOS>ATOM
      1 C         140.1492  140.7588  165.4554 C.ar    1  UNL1        0.0468
      2 C         139.6281  140.6293  166.8560 C.ar    1  UNL1        0.0144
      3 C         138.7315  139.4831  167.2196 C.ar    1  UNL1        0.0044
      4 C         138.3559  138.4664  166.1826 C.ar    1  UNL1        0.0367
      5 C         138.8770  138.5959  164.7821 C.ar    1  UNL1        0.1358
      6 C         139.7737  139.7421  164.4185 C.ar    1  UNL1        0.0268
      7 C         140.2948  139.8716  163.0178 C.3     1  UNL1        0.0541
      8 C         139.9193  138.8549  161.9809 C.3     1  UNL1        0.1200
      9 C         139.0226  137.7087  162.3445 C.3     1  UNL1        0.2250
     10 O         138.5015  137.5792  163.7451 O.3     1  UNL1       -0.4739
     11 C         143.7357  145.3437  164.0008 C.3     1  UNL1        0.0897
     12 N         142.8391  144.1975  164.3645 N.3     1  UNL1       -0.2686
     13 C         143.4281  142.9221  164.8902 C.3     1  UNL1        0.0938
     14 C         142.5314  141.7758  165.2538 C.3     1  UNL1        0.1081
     15 N         141.0459  141.9050  165.0918 N.pl3   1  UNL1       -0.3048
     16 C         140.4569  143.1805  164.5661 C.3     1  UNL1        0.1081
     17 C         141.3534  144.3267  164.2024 C.3     1  UNL1        0.0938
     18 N         140.4404  138.9844  160.5803 N.am    1  UNL1       -0.2986
     19 C         141.7896  138.4317  160.2279 C.2     1  UNL1        0.2474
     20 O         142.6177  137.7494  161.2761 O.2     1  UNL1       -0.2701
     21 H         139.8969  139.4323  159.8923 H       1  UNL1        0.1498
     22 C         142.3107  138.5612  158.8273 C.ar    1  UNL1        0.0727
     23 C         142.4133  139.9140  158.1874 C.ar    1  UNL1        0.0109
     24 C         142.9344  140.0436  156.7868 C.ar    1  UNL1        0.0579
     25 C         143.3528  138.8204  156.0261 C.ar    1  UNL1        0.2251
     26 N         143.2502  137.4676  156.6660 N.ar    1  UNL1       -0.2100
     27 C         142.7291  137.3380  158.0666 C.ar    1  UNL1        0.1065
     28 O         143.8739  138.9499  154.6254 O.3     1  UNL1       -0.4509
     29 C         145.2689  139.4471  154.3872 C.3     1  UNL1        0.3095
     30 C         145.5647  140.9157  154.4620 C.3     1  UNL1        0.4381
     31 F         145.8605  142.3843  154.5367 F       1  UNL1       -0.1663
     32 F         146.2309  140.7138  155.7906 F       1  UNL1       -0.1663
     33 F         144.8985  141.1175  153.1333 F       1  UNL1       -0.1663
@<TRIPOS>BOND
     1    11    12    1
     2    12    13    1
     3    13    14    1
     4    14    15    1
     5    15     1    1
     6     1     2   ar
     7     2     3   ar
     8     3     4   ar
     9     4     5   ar
    10     5     6   ar
    11     6     7    1
    12     7     8    1
    13     8    18    1
    14    18    19   am
    15    19    20    2
    16    19    22    1
    17    22    23   ar
    18    23    24   ar
    19    24    25   ar
    20    25    28    1
    21    28    29    1
    22    29    30    1
    23    30    31    1
    24    30    32    1
    25    30    33    1
    26    25    26   ar
    27    26    27   ar
    28     8     9    1
    29     9    10    1
    30    15    16    1
    31    16    17    1
    32    17    12    1
    33     6     1   ar
    34    27    22   ar
    35    10     5    1
    36    18    21    1
