@<TRIPOS>MOLECULE
*****
 43 46 0 0 0
SMALL
GASTEIGER

@<TRIPOS>ATOM
      1 C         141.4010  140.9136  162.6780 C.3     1  UNL1        0.0799
      2 C         141.4423  140.6538  164.1548 C.ar    1  UNL1        0.0374
      3 C         141.0482  141.7343  165.1177 C.ar    1  UNL1        0.0023
      4 C         141.0894  141.4745  166.5944 C.ar    1  UNL1        0.0181
      5 C         140.6954  142.5550  167.5573 C.ar    1  UNL1        0.0082
      6 C         140.7366  142.2951  169.0341 C.ar    1  UNL1        0.0347
      7 BR        140.3426  143.3756  169.9971 Br      1  UNL1       -0.0490
      8 C         141.1719  140.9548  169.5479 C.ar    1  UNL1        0.0082
      9 C         141.5660  139.8743  168.5850 C.ar    1  UNL1        0.0197
     10 C         141.5247  140.1341  167.1083 C.ar    1  UNL1        0.0844
     11 N         141.9188  139.0536  166.1453 N.ar    1  UNL1       -0.2119
     12 C         141.8775  139.3134  164.6686 C.ar    1  UNL1        0.2211
     13 O         142.2716  138.2329  163.7056 O.3     1  UNL1       -0.4563
     14 C         141.1374  137.2513  163.6990 C.3     1  UNL1        0.2542
     15 C         140.2824  140.3554  161.8492 C.ar    1  UNL1        0.0148
     16 C         138.8577  140.6062  162.2458 C.ar    1  UNL1       -0.0014
     17 C         137.7390  140.0479  161.4170 C.ar    1  UNL1        0.0029
     18 C         138.0451  139.2388  160.1915 C.ar    1  UNL1        0.0392
     19 C         139.4698  138.9880  159.7949 C.ar    1  UNL1        0.1657
     20 C         140.5885  139.5463  160.6238 C.ar    1  UNL1        0.1702
     21 F         142.0132  139.2955  160.2272 F       1  UNL1       -0.2013
     22 O         139.7759  138.1789  158.5695 O.3     1  UNL1       -0.4692
     23 C         140.2365  138.8616  157.3158 C.3     1  UNL1        0.2526
     24 C         142.4784  141.7318  162.0301 C.3     1  UNL1        0.1162
     25 O         143.4961  140.7017  162.4215 O.3     1  UNL1       -0.3820
     26 H         144.3723  140.9785  162.1109 H       1  UNL1        0.2107
     27 C         140.1860  144.0792  159.7975 C.ar    1  UNL1        0.2272
     28 C         141.2036  143.0491  160.1890 C.ar    1  UNL1        0.0559
     29 C         141.4608  142.7619  161.6386 C.ar    1  UNL1        0.0117
     30 C         140.7003  143.5048  162.6967 C.ar    1  UNL1        0.0559
     31 C         139.6826  144.5349  162.3052 C.ar    1  UNL1        0.2270
     32 N         139.4255  144.8221  160.8556 N.ar    1  UNL1       -0.1767
     33 C         140.2973  145.7010  157.7708 C.3     1  UNL1        0.2542
     34 O         139.9289  144.3664  158.3478 O.3     1  UNL1       -0.4561
     35 O         138.9221  145.2779  163.3634 O.3     1  UNL1       -0.4640
     36 C         138.3701  144.5407  164.5474 C.3     1  UNL1        0.1678
     37 C         138.5419  145.1025  165.9275 C.3     1  UNL1        0.0473
     38 C         137.6463  143.2416  164.3512 C.3     1  UNL1        0.0473
     39 C         143.5558  142.5499  161.3821 C.3     1  UNL1        0.0491
     40 C         144.6462  143.1515  162.2185 C.3     1  UNL1        0.0750
     41 N         144.3269  143.7251  163.5672 N.3     1  UNL1       -0.2702
     42 C         143.7231  145.0938  163.6762 C.3     1  UNL1        0.0897
     43 C         144.6116  142.9300  164.8069 C.3     1  UNL1        0.0897
@<TRIPOS>BOND
     1    33    34    1
     2    34    27    1
     3    27    28   ar
     4    28    29   ar
     5    29    24    1
     6    24    25    1
     7    24    39    1
     8    39    40    1
     9    40    41    1
    10    41    42    1
    11    41    43    1
    12    24     1    1
    13     1     2    1
    14     2     3   ar
    15     3     4   ar
    16     4     5   ar
    17     5     6   ar
    18     6     7    1
    19     6     8   ar
    20     8     9   ar
    21     9    10   ar
    22    10    11   ar
    23    11    12   ar
    24    12    13    1
    25    13    14    1
    26     1    15    1
    27    15    16   ar
    28    16    17   ar
    29    17    18   ar
    30    18    19   ar
    31    19    22    1
    32    22    23    1
    33    19    20   ar
    34    20    21    1
    35    29    30   ar
    36    30    31   ar
    37    31    35    1
    38    35    36    1
    39    36    37    1
    40    36    38    1
    41    31    32   ar
    42    32    27   ar
    43    12     2   ar
    44    20    15   ar
    45    10     4   ar
    46    25    26    1
@<TRIPOS>MOLECULE
*****
 43 46 0 0 0
SMALL
GASTEIGER

@<TRIPOS>ATOM
      1 C         141.5480  142.0207  162.6185 C.3     1  UNL1        0.0799
      2 C         141.9689  142.0795  164.0571 C.ar    1  UNL1        0.0374
      3 C         140.9905  141.7313  165.1395 C.ar    1  UNL1        0.0023
      4 C         141.4113  141.7901  166.5781 C.ar    1  UNL1        0.0181
      5 C         140.4330  141.4419  167.6605 C.ar    1  UNL1        0.0082
      6 C         140.8539  141.5007  169.0991 C.ar    1  UNL1        0.0347
      7 BR        139.8756  141.1525  170.1815 Br      1  UNL1       -0.0490
      8 C         142.2530  141.9076  169.4552 C.ar    1  UNL1        0.0082
      9 C         143.2313  142.2558  168.3728 C.ar    1  UNL1        0.0197
     10 C         142.8105  142.1970  166.9342 C.ar    1  UNL1        0.0844
     11 N         143.7888  142.5452  165.8518 N.ar    1  UNL1       -0.2119
     12 C         143.3680  142.4865  164.4132 C.ar    1  UNL1        0.2211
     13 O         144.3463  142.8346  163.3307 O.3     1  UNL1       -0.4563
     14 C         145.4898  141.8759  163.4830 C.3     1  UNL1        0.2542
     15 C         142.3288  141.1921  161.6419 C.ar    1  UNL1        0.0148
     16 C         142.6275  139.7545  161.9485 C.ar    1  UNL1       -0.0014
     17 C         143.4082  138.9259  160.9719 C.ar    1  UNL1        0.0029
     18 C         143.8903  139.5349  159.6886 C.ar    1  UNL1        0.0392
     19 C         143.5916  140.9725  159.3820 C.ar    1  UNL1        0.1657
     20 C         142.8108  141.8012  160.3587 C.ar    1  UNL1        0.1702
     21 F         142.5121  143.2388  160.0521 F       1  UNL1       -0.2013
     22 O         144.0737  141.5816  158.0988 O.3     1  UNL1       -0.4692
     23 C         145.2301  142.5368  158.1099 C.3     1  UNL1        0.2526
     24 C         140.3464  142.7906  162.1566 C.3     1  UNL1        0.1162
     25 O         141.0084  144.0717  162.5696 O.3     1  UNL1       -0.3820
     26 H         140.4184  144.8172  162.3770 H       1  UNL1        0.2107
     27 C         138.6467  140.0072  159.8953 C.ar    1  UNL1        0.2272
     28 C         139.3087  141.2882  160.3083 C.ar    1  UNL1        0.0559
     29 C         139.6844  141.5095  161.7435 C.ar    1  UNL1        0.0117
     30 C         139.3981  140.4498  162.7657 C.ar    1  UNL1        0.0559
     31 C         138.7361  139.1687  162.3526 C.ar    1  UNL1        0.2270
     32 N         138.3604  138.9474  160.9174 N.ar    1  UNL1       -0.1767
     33 C         137.7796  140.9331  157.6279 C.3     1  UNL1        0.2542
     34 O         138.2710  139.7859  158.4600 O.3     1  UNL1       -0.4561
     35 O         138.4498  138.1089  163.3749 O.3     1  UNL1       -0.4640
     36 C         139.1212  138.1589  164.7153 C.3     1  UNL1        0.1678
     37 C         138.3698  138.6616  165.9122 C.3     1  UNL1        0.0473
     38 C         140.5441  137.7061  164.8587 C.3     1  UNL1        0.0473
     39 C         139.1447  143.5605  161.6946 C.3     1  UNL1        0.0491
     40 C         138.4040  144.4424  162.6558 C.3     1  UNL1        0.0750
     41 N         138.2552  144.0297  164.0902 N.3     1  UNL1       -0.2702
     42 C         138.8658  144.8632  165.1776 C.3     1  UNL1        0.0897
     43 C         137.4958  142.7835  164.4372 C.3     1  UNL1        0.0897
@<TRIPOS>BOND
     1    33    34    1
     2    34    27    1
     3    27    28   ar
     4    28    29   ar
     5    29    24    1
     6    24    25    1
     7    24    39    1
     8    39    40    1
     9    40    41    1
    10    41    42    1
    11    41    43    1
    12    24     1    1
    13     1     2    1
    14     2     3   ar
    15     3     4   ar
    16     4     5   ar
    17     5     6   ar
    18     6     7    1
    19     6     8   ar
    20     8     9   ar
    21     9    10   ar
    22    10    11   ar
    23    11    12   ar
    24    12    13    1
    25    13    14    1
    26     1    15    1
    27    15    16   ar
    28    16    17   ar
    29    17    18   ar
    30    18    19   ar
    31    19    22    1
    32    22    23    1
    33    19    20   ar
    34    20    21    1
    35    29    30   ar
    36    30    31   ar
    37    31    35    1
    38    35    36    1
    39    36    37    1
    40    36    38    1
    41    31    32   ar
    42    32    27   ar
    43    12     2   ar
    44    20    15   ar
    45    10     4   ar
    46    25    26    1
@<TRIPOS>MOLECULE
*****
 43 46 0 0 0
SMALL
GASTEIGER

@<TRIPOS>ATOM
      1 C         141.5169  140.4762  162.8418 C.3     1  UNL1        0.0799
      2 C         141.8635  140.6179  164.2944 C.ar    1  UNL1        0.0374
      3 C         141.1089  141.5881  165.1543 C.ar    1  UNL1        0.0023
      4 C         141.4554  141.7298  166.6068 C.ar    1  UNL1        0.0181
      5 C         140.7008  142.7000  167.4666 C.ar    1  UNL1        0.0082
      6 C         141.0474  142.8417  168.9192 C.ar    1  UNL1        0.0347
      7 BR        140.2928  143.8118  169.7791 Br      1  UNL1       -0.0490
      8 C         142.1485  142.0133  169.5118 C.ar    1  UNL1        0.0082
      9 C         142.9031  141.0432  168.6519 C.ar    1  UNL1        0.0197
     10 C         142.5566  140.9014  167.1994 C.ar    1  UNL1        0.0844
     11 N         143.3112  139.9313  166.3396 N.ar    1  UNL1       -0.2119
     12 C         142.9646  139.7896  164.8870 C.ar    1  UNL1        0.2211
     13 O         143.7193  138.8194  164.0271 O.3     1  UNL1       -0.4563
     14 C         145.0386  139.4688  163.7312 C.3     1  UNL1        0.2542
     15 C         142.3460  141.1697  161.8018 C.ar    1  UNL1        0.0148
     16 C         142.5654  142.6513  161.8830 C.ar    1  UNL1       -0.0014
     17 C         143.3944  143.3448  160.8430 C.ar    1  UNL1        0.0029
     18 C         144.0042  142.5567  159.7217 C.ar    1  UNL1        0.0392
     19 C         143.7848  141.0750  159.6406 C.ar    1  UNL1        0.1657
     20 C         142.9557  140.3815  160.6807 C.ar    1  UNL1        0.1702
     21 F         142.7363  138.8999  160.5996 F       1  UNL1       -0.2013
     22 O         144.3946  140.2868  158.5195 O.3     1  UNL1       -0.4692
     23 C         144.9053  140.9920  157.2981 C.3     1  UNL1        0.2526
     24 C         140.3412  139.6410  162.4294 C.3     1  UNL1        0.1162
     25 O         141.0384  138.4115  162.9318 O.3     1  UNL1       -0.3820
     26 H         140.4718  137.6373  162.7887 H       1  UNL1        0.2107
     27 C         138.7305  142.2906  159.9525 C.ar    1  UNL1        0.2272
     28 C         139.4276  141.0611  160.4549 C.ar    1  UNL1        0.0559
     29 C         139.6441  140.8704  161.9269 C.ar    1  UNL1        0.0117
     30 C         139.1634  141.9091  162.8964 C.ar    1  UNL1        0.0559
     31 C         138.4662  143.1385  162.3939 C.ar    1  UNL1        0.2270
     32 N         138.2498  143.3293  160.9219 N.ar    1  UNL1       -0.1767
     33 C         139.5167  143.2458  157.6678 C.3     1  UNL1        0.2542
     34 O         138.5141  142.4813  158.4804 O.3     1  UNL1       -0.4561
     35 O         137.9855  144.1773  163.3635 O.3     1  UNL1       -0.4640
     36 C         138.9256  144.7381  164.3891 C.3     1  UNL1        0.1678
     37 C         140.3594  144.9950  164.0313 C.3     1  UNL1        0.0473
     38 C         138.4317  145.0419  165.7725 C.3     1  UNL1        0.0473
     39 C         139.1655  138.8057  162.0169 C.3     1  UNL1        0.0491
     40 C         138.1328  138.4117  163.0310 C.3     1  UNL1        0.0750
     41 N         138.4693  138.4361  164.4925 N.3     1  UNL1       -0.2702
     42 C         139.1304  137.2501  165.1298 C.3     1  UNL1        0.0897
     43 C         138.1446  139.6466  165.3168 C.3     1  UNL1        0.0897
@<TRIPOS>BOND
     1    33    34    1
     2    34    27    1
     3    27    28   ar
     4    28    29   ar
     5    29    24    1
     6    24    25    1
     7    24    39    1
     8    39    40    1
     9    40    41    1
    10    41    42    1
    11    41    43    1
    12    24     1    1
    13     1     2    1
    14     2     3   ar
    15     3     4   ar
    16     4     5   ar
    17     5     6   ar
    18     6     7    1
    19     6     8   ar
    20     8     9   ar
    21     9    10   ar
    22    10    11   ar
    23    11    12   ar
    24    12    13    1
    25    13    14    1
    26     1    15    1
    27    15    16   ar
    28    16    17   ar
    29    17    18   ar
    30    18    19   ar
    31    19    22    1
    32    22    23    1
    33    19    20   ar
    34    20    21    1
    35    29    30   ar
    36    30    31   ar
    37    31    35    1
    38    35    36    1
    39    36    37    1
    40    36    38    1
    41    31    32   ar
    42    32    27   ar
    43    12     2   ar
    44    20    15   ar
    45    10     4   ar
    46    25    26    1
@<TRIPOS>MOLECULE
*****
 43 46 0 0 0
SMALL
GASTEIGER

@<TRIPOS>ATOM
      1 C         141.2001  142.2778  164.7661 C.3     1  UNL1        0.0799
      2 C         142.0625  142.3292  163.5397 C.ar    1  UNL1        0.0374
      3 C         141.8133  141.3776  162.4073 C.ar    1  UNL1        0.0023
      4 C         142.6756  141.4289  161.1810 C.ar    1  UNL1        0.0181
      5 C         142.4264  140.4774  160.0486 C.ar    1  UNL1        0.0082
      6 C         143.2888  140.5287  158.8223 C.ar    1  UNL1        0.0347
      7 BR        143.0396  139.5772  157.6898 Br      1  UNL1       -0.0490
      8 C         144.4002  141.5316  158.7284 C.ar    1  UNL1        0.0082
      9 C         144.6494  142.4832  159.8609 C.ar    1  UNL1        0.0197
     10 C         143.7871  142.4318  161.0872 C.ar    1  UNL1        0.0844
     11 N         144.0363  143.3834  162.2196 N.ar    1  UNL1       -0.2119
     12 C         143.1740  143.3321  163.4459 C.ar    1  UNL1        0.2211
     13 O         143.4231  144.2836  164.5784 O.3     1  UNL1       -0.4563
     14 C         144.6684  143.7985  165.2596 C.3     1  UNL1        0.2542
     15 C         141.7691  141.7833  166.0628 C.ar    1  UNL1        0.0148
     16 C         141.8508  142.7027  167.2452 C.ar    1  UNL1       -0.0014
     17 C         142.4197  142.2082  168.5420 C.ar    1  UNL1        0.0029
     18 C         142.9070  140.7941  168.6565 C.ar    1  UNL1        0.0392
     19 C         142.8253  139.8747  167.4741 C.ar    1  UNL1        0.1657
     20 C         142.2563  140.3693  166.1773 C.ar    1  UNL1        0.1702
     21 F         142.1746  139.4498  164.9950 F       1  UNL1       -0.2013
     22 O         143.3126  138.4607  167.5886 O.3     1  UNL1       -0.4692
     23 C         144.2251  137.8948  166.5412 C.3     1  UNL1        0.2526
     24 C         139.7689  142.7210  164.6955 C.3     1  UNL1        0.1162
     25 O         140.2176  144.1319  164.4544 O.3     1  UNL1       -0.3820
     26 H         139.4417  144.7062  164.3595 H       1  UNL1        0.2107
     27 C         138.5210  139.4505  166.5654 C.ar    1  UNL1        0.2272
     28 C         138.9697  140.8613  166.3243 C.ar    1  UNL1        0.0559
     29 C         139.3201  141.3102  164.9366 C.ar    1  UNL1        0.0117
     30 C         139.2217  140.3481  163.7900 C.ar    1  UNL1        0.0559
     31 C         138.7730  138.9373  164.0310 C.ar    1  UNL1        0.2270
     32 N         138.4226  138.4885  165.4187 N.ar    1  UNL1       -0.1767
     33 C         138.6828  139.7635  169.1395 C.3     1  UNL1        0.2542
     34 O         138.1706  139.0017  167.9532 O.3     1  UNL1       -0.4561
     35 O         138.6746  137.9752  162.8843 O.3     1  UNL1       -0.4640
     36 C         139.7270  137.9722  161.8156 C.3     1  UNL1        0.1678
     37 C         141.1461  137.6309  162.1614 C.3     1  UNL1        0.0473
     38 C         139.3604  138.3104  160.4009 C.3     1  UNL1        0.0473
     39 C         138.3376  143.1642  164.6250 C.3     1  UNL1        0.0491
     40 C         137.8516  143.9443  163.4395 C.3     1  UNL1        0.0750
     41 N         138.4750  143.7278  162.0925 N.3     1  UNL1       -0.2702
     42 C         139.4859  144.7041  161.5682 C.3     1  UNL1        0.0897
     43 C         138.0874  142.5350  161.2696 C.3     1  UNL1        0.0897
@<TRIPOS>BOND
     1    33    34    1
     2    34    27    1
     3    27    28   ar
     4    28    29   ar
     5    29    24    1
     6    24    25    1
     7    24    39    1
     8    39    40    1
     9    40    41    1
    10    41    42    1
    11    41    43    1
    12    24     1    1
    13     1     2    1
    14     2     3   ar
    15     3     4   ar
    16     4     5   ar
    17     5     6   ar
    18     6     7    1
    19     6     8   ar
    20     8     9   ar
    21     9    10   ar
    22    10    11   ar
    23    11    12   ar
    24    12    13    1
    25    13    14    1
    26     1    15    1
    27    15    16   ar
    28    16    17   ar
    29    17    18   ar
    30    18    19   ar
    31    19    22    1
    32    22    23    1
    33    19    20   ar
    34    20    21    1
    35    29    30   ar
    36    30    31   ar
    37    31    35    1
    38    35    36    1
    39    36    37    1
    40    36    38    1
    41    31    32   ar
    42    32    27   ar
    43    12     2   ar
    44    20    15   ar
    45    10     4   ar
    46    25    26    1
@<TRIPOS>MOLECULE
*****
 43 46 0 0 0
SMALL
GASTEIGER

@<TRIPOS>ATOM
      1 C         140.4483  140.6681  162.7752 C.3     1  UNL1        0.0799
      2 C         140.2634  140.5117  164.2556 C.ar    1  UNL1        0.0374
      3 C         140.4867  141.6819  165.1671 C.ar    1  UNL1        0.0023
      4 C         140.3019  141.5255  166.6474 C.ar    1  UNL1        0.0181
      5 C         140.5252  142.6957  167.5588 C.ar    1  UNL1        0.0082
      6 C         140.3403  142.5392  169.0392 C.ar    1  UNL1        0.0347
      7 BR        140.5636  143.7094  169.9507 Br      1  UNL1       -0.0490
      8 C         139.9322  141.2126  169.6080 C.ar    1  UNL1        0.0082
      9 C         139.7089  140.0425  168.6965 C.ar    1  UNL1        0.0197
     10 C         139.8937  140.1988  167.2162 C.ar    1  UNL1        0.0844
     11 N         139.6704  139.0287  166.3047 N.ar    1  UNL1       -0.2119
     12 C         139.8553  139.1851  164.8244 C.ar    1  UNL1        0.2211
     13 O         139.6320  138.0149  163.9129 O.3     1  UNL1       -0.4563
     14 C         140.7075  137.0228  164.2428 C.3     1  UNL1        0.2542
     15 C         141.4329  139.8023  162.0467 C.ar    1  UNL1        0.0148
     16 C         142.7877  139.5466  162.6375 C.ar    1  UNL1       -0.0014
     17 C         143.7724  138.6808  161.9090 C.ar    1  UNL1        0.0029
     18 C         143.4023  138.0706  160.5896 C.ar    1  UNL1        0.0392
     19 C         142.0475  138.3264  159.9987 C.ar    1  UNL1        0.1657
     20 C         141.0628  139.1922  160.7273 C.ar    1  UNL1        0.1702
     21 F         139.7080  139.4480  160.1365 F       1  UNL1       -0.2013
     22 O         141.6773  137.7163  158.6794 O.3     1  UNL1       -0.4692
     23 C         142.7184  137.5472  157.6129 C.3     1  UNL1        0.2526
     24 C         139.6484  141.6904  162.0234 C.3     1  UNL1        0.1162
     25 O         138.3812  141.0002  162.4331 O.3     1  UNL1       -0.3820
     26 H         137.6204  141.4747  162.0631 H       1  UNL1        0.2107
     27 C         142.4588  143.3327  159.7531 C.ar    1  UNL1        0.2272
     28 C         141.1916  142.6426  160.1628 C.ar    1  UNL1        0.0559
     29 C         140.9156  142.3806  161.6137 C.ar    1  UNL1        0.0117
     30 C         141.9068  142.8088  162.6549 C.ar    1  UNL1        0.0559
     31 C         143.1740  143.4990  162.2452 C.ar    1  UNL1        0.2270
     32 N         143.4500  143.7609  160.7943 N.ar    1  UNL1       -0.1767
     33 C         143.7747  142.7908  157.5794 C.3     1  UNL1        0.2542
     34 O         142.7348  143.5947  158.3021 O.3     1  UNL1       -0.4561
     35 O         144.1653  143.9272  163.2864 O.3     1  UNL1       -0.4640
     36 C         144.6334  142.9495  164.3232 C.3     1  UNL1        0.1678
     37 C         145.6083  141.8717  163.9518 C.3     1  UNL1        0.0473
     38 C         144.1266  143.0496  165.7315 C.3     1  UNL1        0.0473
     39 C         138.8486  142.7127  161.2716 C.3     1  UNL1        0.0491
     40 C         138.1243  143.7945  162.0168 C.3     1  UNL1        0.0750
     41 N         138.8998  144.8425  162.7588 N.3     1  UNL1       -0.2702
     42 C         138.9290  144.8326  164.2584 C.3     1  UNL1        0.0897
     43 C         139.6460  145.9004  162.0010 C.3     1  UNL1        0.0897
@<TRIPOS>BOND
     1    33    34    1
     2    34    27    1
     3    27    28   ar
     4    28    29   ar
     5    29    24    1
     6    24    25    1
     7    24    39    1
     8    39    40    1
     9    40    41    1
    10    41    42    1
    11    41    43    1
    12    24     1    1
    13     1     2    1
    14     2     3   ar
    15     3     4   ar
    16     4     5   ar
    17     5     6   ar
    18     6     7    1
    19     6     8   ar
    20     8     9   ar
    21     9    10   ar
    22    10    11   ar
    23    11    12   ar
    24    12    13    1
    25    13    14    1
    26     1    15    1
    27    15    16   ar
    28    16    17   ar
    29    17    18   ar
    30    18    19   ar
    31    19    22    1
    32    22    23    1
    33    19    20   ar
    34    20    21    1
    35    29    30   ar
    36    30    31   ar
    37    31    35    1
    38    35    36    1
    39    36    37    1
    40    36    38    1
    41    31    32   ar
    42    32    27   ar
    43    12     2   ar
    44    20    15   ar
    45    10     4   ar
    46    25    26    1
@<TRIPOS>MOLECULE
*****
 43 46 0 0 0
SMALL
GASTEIGER

@<TRIPOS>ATOM
      1 C         142.2730  141.4410  162.9361 C.3     1  UNL1        0.0799
      2 C         142.5284  141.6817  164.3945 C.ar    1  UNL1        0.0374
      3 C         141.7119  140.9631  165.4275 C.ar    1  UNL1        0.0023
      4 C         141.9672  141.2037  166.8858 C.ar    1  UNL1        0.0181
      5 C         141.1507  140.4851  167.9187 C.ar    1  UNL1        0.0082
      6 C         141.4060  140.7258  169.3772 C.ar    1  UNL1        0.0347
      7 BR        140.5896  140.0071  170.4101 Br      1  UNL1       -0.0490
      8 C         142.4777  141.6851  169.8026 C.ar    1  UNL1        0.0082
      9 C         143.2942  142.4038  168.7697 C.ar    1  UNL1        0.0197
     10 C         143.0389  142.1631  167.3113 C.ar    1  UNL1        0.0844
     11 N         143.8554  142.8818  166.2784 N.ar    1  UNL1       -0.2119
     12 C         143.6001  142.6411  164.8200 C.ar    1  UNL1        0.2211
     13 O         144.4166  143.3597  163.7871 O.3     1  UNL1       -0.4563
     14 C         143.9161  144.7737  163.7749 C.3     1  UNL1        0.2542
     15 C         141.5301  142.4619  162.1263 C.ar    1  UNL1        0.0148
     16 C         140.0963  142.7703  162.4412 C.ar    1  UNL1       -0.0014
     17 C         139.3534  143.7912  161.6314 C.ar    1  UNL1        0.0029
     18 C         140.0442  144.5037  160.5066 C.ar    1  UNL1        0.0392
     19 C         141.4780  144.1953  160.1917 C.ar    1  UNL1        0.1657
     20 C         142.2209  143.1744  161.0015 C.ar    1  UNL1        0.1702
     21 F         143.6547  142.8660  160.6866 F       1  UNL1       -0.2013
     22 O         142.1688  144.9077  159.0669 O.3     1  UNL1       -0.4692
     23 C         141.3628  145.6414  158.0364 C.3     1  UNL1        0.2526
     24 C         142.7607  140.1795  162.2876 C.3     1  UNL1        0.1162
     25 O         144.1755  140.6619  162.4130 O.3     1  UNL1       -0.3820
     26 H         144.7777  139.9967  162.0446 H       1  UNL1        0.2107
     27 C         139.2387  139.2592  160.7070 C.ar    1  UNL1        0.2272
     28 C         140.6534  139.7416  160.8324 C.ar    1  UNL1        0.0559
     29 C         141.3459  139.6971  162.1622 C.ar    1  UNL1        0.0117
     30 C         140.6236  139.1701  163.3666 C.ar    1  UNL1        0.0559
     31 C         139.2089  138.6877  163.2411 C.ar    1  UNL1        0.2270
     32 N         138.5164  138.7323  161.9113 N.ar    1  UNL1       -0.1767
     33 C         137.9984  140.6008  158.8598 C.3     1  UNL1        0.2542
     34 O         138.5462  139.3037  159.3771 O.3     1  UNL1       -0.4561
     35 O         138.4866  138.1608  164.4456 O.3     1  UNL1       -0.4640
     36 C         138.1422  139.0837  165.5769 C.3     1  UNL1        0.1678
     37 C         138.1829  140.5690  165.3720 C.3     1  UNL1        0.0473
     38 C         137.7571  138.5211  166.9131 C.3     1  UNL1        0.0473
     39 C         143.2483  138.9179  161.6390 C.3     1  UNL1        0.0491
     40 C         144.1974  138.9890  160.4796 C.3     1  UNL1        0.0750
     41 N         143.6708  139.2009  159.0912 N.3     1  UNL1       -0.2702
     42 C         143.9968  140.4635  158.3499 C.3     1  UNL1        0.0897
     43 C         142.8180  138.1501  158.4440 C.3     1  UNL1        0.0897
@<TRIPOS>BOND
     1    33    34    1
     2    34    27    1
     3    27    28   ar
     4    28    29   ar
     5    29    24    1
     6    24    25    1
     7    24    39    1
     8    39    40    1
     9    40    41    1
    10    41    42    1
    11    41    43    1
    12    24     1    1
    13     1     2    1
    14     2     3   ar
    15     3     4   ar
    16     4     5   ar
    17     5     6   ar
    18     6     7    1
    19     6     8   ar
    20     8     9   ar
    21     9    10   ar
    22    10    11   ar
    23    11    12   ar
    24    12    13    1
    25    13    14    1
    26     1    15    1
    27    15    16   ar
    28    16    17   ar
    29    17    18   ar
    30    18    19   ar
    31    19    22    1
    32    22    23    1
    33    19    20   ar
    34    20    21    1
    35    29    30   ar
    36    30    31   ar
    37    31    35    1
    38    35    36    1
    39    36    37    1
    40    36    38    1
    41    31    32   ar
    42    32    27   ar
    43    12     2   ar
    44    20    15   ar
    45    10     4   ar
    46    25    26    1
@<TRIPOS>MOLECULE
*****
 43 46 0 0 0
SMALL
GASTEIGER

@<TRIPOS>ATOM
      1 C         142.2438  140.9942  163.2596 C.3     1  UNL1        0.0799
      2 C         142.4590  141.3370  164.7041 C.ar    1  UNL1        0.0374
      3 C         141.6053  140.7013  165.7610 C.ar    1  UNL1        0.0023
      4 C         141.8204  141.0441  167.2053 C.ar    1  UNL1        0.0181
      5 C         140.9667  140.4084  168.2622 C.ar    1  UNL1        0.0082
      6 C         141.1818  140.7512  169.7066 C.ar    1  UNL1        0.0347
      7 BR        140.3281  140.1155  170.7635 Br      1  UNL1       -0.0490
      8 C         142.2506  141.7297  170.0941 C.ar    1  UNL1        0.0082
      9 C         143.1043  142.3654  169.0372 C.ar    1  UNL1        0.0197
     10 C         142.8892  142.0227  167.5928 C.ar    1  UNL1        0.0844
     11 N         143.7429  142.6584  166.5359 N.ar    1  UNL1       -0.2119
     12 C         143.5277  142.3155  165.0915 C.ar    1  UNL1        0.2211
     13 O         144.3814  142.9513  164.0346 O.3     1  UNL1       -0.4563
     14 C         143.9874  144.3982  163.9999 C.3     1  UNL1        0.2542
     15 C         141.5717  141.9772  162.3476 C.ar    1  UNL1        0.0148
     16 C         142.3304  142.5763  161.2006 C.ar    1  UNL1       -0.0014
     17 C         141.6583  143.5592  160.2886 C.ar    1  UNL1        0.0029
     18 C         140.2273  143.9432  160.5234 C.ar    1  UNL1        0.0392
     19 C         139.4686  143.3441  161.6703 C.ar    1  UNL1        0.1657
     20 C         140.1408  142.3610  162.5824 C.ar    1  UNL1        0.1702
     21 F         139.3821  141.7619  163.7293 F       1  UNL1       -0.2013
     22 O         138.0377  143.7279  161.9051 O.3     1  UNL1       -0.4692
     23 C         137.6442  144.4106  163.1814 C.3     1  UNL1        0.2526
     24 C         142.7009  139.6684  162.7274 C.3     1  UNL1        0.1162
     25 O         144.1226  140.1455  162.7596 O.3     1  UNL1       -0.3820
     26 H         144.7077  139.4401  162.4420 H       1  UNL1        0.2107
     27 C         139.2076  138.2081  163.9167 C.ar    1  UNL1        0.2272
     28 C         140.6293  138.6853  163.9489 C.ar    1  UNL1        0.0559
     29 C         141.2792  139.1912  162.6952 C.ar    1  UNL1        0.0117
     30 C         140.5073  139.2199  161.4094 C.ar    1  UNL1        0.0559
     31 C         139.0856  138.7427  161.3772 C.ar    1  UNL1        0.2270
     32 N         138.4357  138.2368  162.6309 N.ar    1  UNL1       -0.1767
     33 C         138.1720  138.6633  166.2556 C.3     1  UNL1        0.2542
     34 O         138.5577  137.7023  165.1705 O.3     1  UNL1       -0.4561
     35 O         138.3138  138.7714  160.0913 O.3     1  UNL1       -0.4640
     36 C         138.7139  139.7165  158.9974 C.3     1  UNL1        0.1678
     37 C         138.3225  141.1624  159.0750 C.3     1  UNL1        0.0473
     38 C         139.5056  139.2156  157.8258 C.3     1  UNL1        0.0473
     39 C         143.1579  138.3425  162.1952 C.3     1  UNL1        0.0491
     40 C         144.0737  138.2861  161.0085 C.3     1  UNL1        0.0750
     41 N         143.5793  138.7142  159.6585 N.3     1  UNL1       -0.2702
     42 C         142.7897  137.7604  158.8119 C.3     1  UNL1        0.0897
     43 C         143.8745  140.0961  159.1552 C.3     1  UNL1        0.0897
@<TRIPOS>BOND
     1    33    34    1
     2    34    27    1
     3    27    28   ar
     4    28    29   ar
     5    29    24    1
     6    24    25    1
     7    24    39    1
     8    39    40    1
     9    40    41    1
    10    41    42    1
    11    41    43    1
    12    24     1    1
    13     1     2    1
    14     2     3   ar
    15     3     4   ar
    16     4     5   ar
    17     5     6   ar
    18     6     7    1
    19     6     8   ar
    20     8     9   ar
    21     9    10   ar
    22    10    11   ar
    23    11    12   ar
    24    12    13    1
    25    13    14    1
    26     1    15    1
    27    15    16   ar
    28    16    17   ar
    29    17    18   ar
    30    18    19   ar
    31    19    22    1
    32    22    23    1
    33    19    20   ar
    34    20    21    1
    35    29    30   ar
    36    30    31   ar
    37    31    35    1
    38    35    36    1
    39    36    37    1
    40    36    38    1
    41    31    32   ar
    42    32    27   ar
    43    12     2   ar
    44    20    15   ar
    45    10     4   ar
    46    25    26    1
@<TRIPOS>MOLECULE
*****
 43 46 0 0 0
SMALL
GASTEIGER

@<TRIPOS>ATOM
      1 C         140.3225  141.4303  161.4816 C.3     1  UNL1        0.0799
      2 C         140.0507  141.0106  162.8958 C.ar    1  UNL1        0.0374
      3 C         141.0845  141.2403  163.9581 C.ar    1  UNL1        0.0023
      4 C         140.8128  140.8205  165.3723 C.ar    1  UNL1        0.0181
      5 C         141.8466  141.0502  166.4346 C.ar    1  UNL1        0.0082
      6 C         141.5748  140.6305  167.8489 C.ar    1  UNL1        0.0347
      7 BR        142.6086  140.8601  168.9112 Br      1  UNL1       -0.0490
      8 C         140.2693  139.9810  168.2007 C.ar    1  UNL1        0.0082
      9 C         139.2355  139.7514  167.1384 C.ar    1  UNL1        0.0197
     10 C         139.5072  140.1711  165.7242 C.ar    1  UNL1        0.0844
     11 N         138.4734  139.9414  164.6619 N.ar    1  UNL1       -0.2119
     12 C         138.7452  140.3612  163.2477 C.ar    1  UNL1        0.2211
     13 O         137.7114  140.1315  162.1854 O.3     1  UNL1       -0.4563
     14 C         137.7388  138.6605  161.8930 C.3     1  UNL1        0.2542
     15 C         140.5606  140.3935  160.4241 C.ar    1  UNL1        0.0148
     16 C         141.7406  139.4733  160.5282 C.ar    1  UNL1       -0.0014
     17 C         141.9787  138.4365  159.4707 C.ar    1  UNL1        0.0029
     18 C         141.0368  138.3199  158.3091 C.ar    1  UNL1        0.0392
     19 C         139.8568  139.2401  158.2050 C.ar    1  UNL1        0.1657
     20 C         139.6188  140.2770  159.2625 C.ar    1  UNL1        0.1702
     21 F         138.4388  141.1972  159.1584 F       1  UNL1       -0.2013
     22 O         138.9150  139.1236  157.0434 O.3     1  UNL1       -0.4692
     23 C         139.4322  138.7119  155.6969 C.3     1  UNL1        0.2526
     24 C         140.3561  142.8869  161.1249 C.3     1  UNL1        0.1162
     25 O         138.9116  143.0142  161.5085 O.3     1  UNL1       -0.3820
     26 H         138.6208  143.9297  161.3738 H       1  UNL1        0.2107
     27 C         143.6449  142.6854  158.9128 C.ar    1  UNL1        0.2272
     28 C         142.2004  142.8128  159.2965 C.ar    1  UNL1        0.0559
     29 C         141.8006  142.7596  160.7412 C.ar    1  UNL1        0.0117
     30 C         142.8454  142.5791  161.8023 C.ar    1  UNL1        0.0559
     31 C         144.2899  142.4518  161.4186 C.ar    1  UNL1        0.2270
     32 N         144.6896  142.5050  159.9739 N.ar    1  UNL1       -0.1767
     33 C         145.3536  142.1514  157.0299 C.3     1  UNL1        0.2542
     34 O         144.0447  142.7386  157.4680 O.3     1  UNL1       -0.4561
     35 O         145.3346  142.2714  162.4798 O.3     1  UNL1       -0.4640
     36 C         144.9319  141.8724  163.8686 C.3     1  UNL1        0.1678
     37 C         144.8152  140.4208  164.2278 C.3     1  UNL1        0.0473
     38 C         144.6459  142.9252  164.8981 C.3     1  UNL1        0.0473
     39 C         140.3898  144.3435  160.7682 C.3     1  UNL1        0.0491
     40 C         140.0116  145.3748  161.7898 C.3     1  UNL1        0.0750
     41 N         140.4028  145.1867  163.2256 N.3     1  UNL1       -0.2702
     42 C         141.8308  145.3742  163.6446 C.3     1  UNL1        0.0897
     43 C         139.3659  144.8112  164.2425 C.3     1  UNL1        0.0897
@<TRIPOS>BOND
     1    33    34    1
     2    34    27    1
     3    27    28   ar
     4    28    29   ar
     5    29    24    1
     6    24    25    1
     7    24    39    1
     8    39    40    1
     9    40    41    1
    10    41    42    1
    11    41    43    1
    12    24     1    1
    13     1     2    1
    14     2     3   ar
    15     3     4   ar
    16     4     5   ar
    17     5     6   ar
    18     6     7    1
    19     6     8   ar
    20     8     9   ar
    21     9    10   ar
    22    10    11   ar
    23    11    12   ar
    24    12    13    1
    25    13    14    1
    26     1    15    1
    27    15    16   ar
    28    16    17   ar
    29    17    18   ar
    30    18    19   ar
    31    19    22    1
    32    22    23    1
    33    19    20   ar
    34    20    21    1
    35    29    30   ar
    36    30    31   ar
    37    31    35    1
    38    35    36    1
    39    36    37    1
    40    36    38    1
    41    31    32   ar
    42    32    27   ar
    43    12     2   ar
    44    20    15   ar
    45    10     4   ar
    46    25    26    1
@<TRIPOS>MOLECULE
*****
 43 46 0 0 0
SMALL
GASTEIGER

@<TRIPOS>ATOM
      1 C         141.4490  141.2292  160.1085 C.3     1  UNL1        0.0799
      2 C         140.9985  140.1858  161.0875 C.ar    1  UNL1        0.0374
      3 C         140.2975  140.5941  162.3492 C.ar    1  UNL1        0.0023
      4 C         139.8470  139.5508  163.3282 C.ar    1  UNL1        0.0181
      5 C         139.1460  139.9591  164.5899 C.ar    1  UNL1        0.0082
      6 C         138.6955  138.9156  165.5689 C.ar    1  UNL1        0.0347
      7 BR        137.9945  139.3239  166.8306 Br      1  UNL1       -0.0490
      8 C         138.9461  137.4640  165.2862 C.ar    1  UNL1        0.0082
      9 C         139.6471  137.0557  164.0245 C.ar    1  UNL1        0.0197
     10 C         140.0976  138.0991  163.0455 C.ar    1  UNL1        0.0844
     11 N         140.7986  137.6908  161.7838 N.ar    1  UNL1       -0.2119
     12 C         141.2490  138.7342  160.8048 C.ar    1  UNL1        0.2211
     13 O         141.9501  138.3259  159.5431 O.3     1  UNL1       -0.4563
     14 C         143.0824  137.4386  159.9679 C.3     1  UNL1        0.2542
     15 C         140.7757  141.3452  158.7731 C.ar    1  UNL1        0.0148
     16 C         141.5714  141.1677  157.5140 C.ar    1  UNL1       -0.0014
     17 C         140.8981  141.2837  156.1787 C.ar    1  UNL1        0.0029
     18 C         139.4290  141.5772  156.1024 C.ar    1  UNL1        0.0392
     19 C         138.6333  141.7547  157.3615 C.ar    1  UNL1        0.1657
     20 C         139.3067  141.6387  158.6969 C.ar    1  UNL1        0.1702
     21 F         138.5110  141.8162  159.9560 F       1  UNL1       -0.2013
     22 O         137.1643  142.0482  157.2853 O.3     1  UNL1       -0.4692
     23 C         136.2615  141.1550  156.4871 C.3     1  UNL1        0.2526
     24 C         142.5728  142.1567  160.4649 C.3     1  UNL1        0.1162
     25 O         143.5218  140.9954  160.4944 O.3     1  UNL1       -0.3820
     26 H         144.4115  141.3105  160.7180 H       1  UNL1        0.2107
     27 C         140.5475  145.3124  159.1651 C.ar    1  UNL1        0.2272
     28 C         141.4964  144.1511  159.1946 C.ar    1  UNL1        0.0559
     29 C         141.6238  143.3179  160.4354 C.ar    1  UNL1        0.0117
     30 C         140.8021  143.6460  161.6466 C.ar    1  UNL1        0.0559
     31 C         139.8531  144.8072  161.6171 C.ar    1  UNL1        0.2270
     32 N         139.7258  145.6405  160.3764 N.ar    1  UNL1       -0.1767
     33 C         139.9661  145.5154  156.6411 C.3     1  UNL1        0.2542
     34 O         140.4202  146.1456  157.9243 O.3     1  UNL1       -0.4561
     35 O         139.0314  145.1353  162.8285 O.3     1  UNL1       -0.4640
     36 C         138.5917  144.0409  163.7553 C.3     1  UNL1        0.1678
     37 C         139.1809  143.9412  165.1311 C.3     1  UNL1        0.0473
     38 C         137.5626  143.0461  163.3062 C.3     1  UNL1        0.0473
     39 C         143.6965  143.0841  160.8213 C.3     1  UNL1        0.0491
     40 C         144.8987  142.5604  161.5499 C.3     1  UNL1        0.0750
     41 N         144.8999  142.5004  163.0487 N.3     1  UNL1       -0.2702
     42 C         144.0300  143.4337  163.8374 C.3     1  UNL1        0.0897
     43 C         145.7712  141.5069  163.7588 C.3     1  UNL1        0.0897
@<TRIPOS>BOND
     1    33    34    1
     2    34    27    1
     3    27    28   ar
     4    28    29   ar
     5    29    24    1
     6    24    25    1
     7    24    39    1
     8    39    40    1
     9    40    41    1
    10    41    42    1
    11    41    43    1
    12    24     1    1
    13     1     2    1
    14     2     3   ar
    15     3     4   ar
    16     4     5   ar
    17     5     6   ar
    18     6     7    1
    19     6     8   ar
    20     8     9   ar
    21     9    10   ar
    22    10    11   ar
    23    11    12   ar
    24    12    13    1
    25    13    14    1
    26     1    15    1
    27    15    16   ar
    28    16    17   ar
    29    17    18   ar
    30    18    19   ar
    31    19    22    1
    32    22    23    1
    33    19    20   ar
    34    20    21    1
    35    29    30   ar
    36    30    31   ar
    37    31    35    1
    38    35    36    1
    39    36    37    1
    40    36    38    1
    41    31    32   ar
    42    32    27   ar
    43    12     2   ar
    44    20    15   ar
    45    10     4   ar
    46    25    26    1
