@<TRIPOS>MOLECULE
*****
 36 39 0 0 0
SMALL
GASTEIGER

@<TRIPOS>ATOM
      1 C         137.9599  141.7956  161.6990 C.ar    1  UNL1        0.1417
      2 C         138.0412  140.8234  162.8383 C.ar    1  UNL1        0.0743
      3 C         138.4983  139.4161  162.5922 C.ar    1  UNL1        0.1485
      4 C         138.8741  138.9810  161.2068 C.ar    1  UNL1        0.0422
      5 C         138.7928  139.9532  160.0675 C.ar    1  UNL1        0.0597
      6 C         138.3357  141.3605  160.3135 C.ar    1  UNL1        0.0416
      7 C         139.1687  139.5182  158.6819 C.2     1  UNL1        0.2508
      8 O         139.1750  140.5130  157.5593 O.2     1  UNL1       -0.2698
      9 N         139.5381  138.0884  158.4191 N.am    1  UNL1       -0.2646
     10 H         139.5339  137.4355  159.1559 H       1  UNL1        0.1566
     11 C         139.9140  137.6534  157.0336 C.ar    1  UNL1        0.1538
     12 C         141.3561  137.4426  156.6790 C.ar    1  UNL1        0.1328
     13 N         141.7318  137.0076  155.2935 N.ar    1  UNL1       -0.2436
     14 C         140.6655  136.7833  154.2627 C.ar    1  UNL1        0.0786
     15 C         141.0413  136.3483  152.8772 C.3     1  UNL1        0.0538
     16 C         139.2234  136.9941  154.6173 C.ar    1  UNL1        0.1150
     17 N         138.8476  137.4291  156.0028 N.ar    1  UNL1       -0.2262
     18 O         137.5028  143.2029  161.9451 O.3     1  UNL1       -0.4765
     19 C         138.2322  144.0669  162.9306 C.3     1  UNL1        0.1954
     20 C         137.7961  144.1004  164.3655 C.3     1  UNL1        0.0500
     21 C         139.3978  144.8974  162.4814 C.3     1  UNL1        0.1855
     22 C         141.6537  145.0707  163.7584 C.3     1  UNL1        0.1743
     23 O         140.7981  144.4137  162.7161 O.3     1  UNL1       -0.3473
     24 O         138.5795  138.4438  163.7316 O.3     1  UNL1       -0.4518
     25 C         139.0540  138.9043  165.0780 C.ar    1  UNL1        0.1644
     26 C         138.0852  139.0112  166.2184 C.ar    1  UNL1        0.0408
     27 C         138.5597  139.4717  167.5648 C.ar    1  UNL1        0.0269
     28 C         140.0028  139.8253  167.7709 C.ar    1  UNL1        0.1349
     29 N         140.9714  139.7183  166.6306 N.ar    1  UNL1       -0.2361
     30 C         140.4970  139.2579  165.2842 C.ar    1  UNL1        0.1363
     31 C         140.4772  140.2858  169.1173 C.2     1  UNL1        0.2668
     32 O         140.8554  139.2798  170.1637 O.2     1  UNL1       -0.2683
     33 N         140.5734  141.7524  169.4174 N.am    1  UNL1       -0.2747
     34 C         140.2934  143.0121  168.6528 C.3     1  UNL1        0.0955
     35 C         140.7095  143.8263  169.8418 C.3     1  UNL1        0.0430
     36 C         140.9896  142.5666  170.6065 C.3     1  UNL1        0.0955
@<TRIPOS>BOND
     1    22    23    1
     2    23    21    1
     3    21    19    1
     4    19    20    1
     5    19    18    1
     6    18     1    1
     7     1     2   ar
     8     2     3   ar
     9     3    24    1
    10    24    25    1
    11    25    26   ar
    12    26    27   ar
    13    27    28   ar
    14    28    31    1
    15    31    32    2
    16    31    33   am
    17    33    34    1
    18    34    35    1
    19    35    36    1
    20    28    29   ar
    21    29    30   ar
    22     3     4   ar
    23     4     5   ar
    24     5     7    1
    25     7     8    2
    26     7     9   am
    27     9    11    1
    28    11    12   ar
    29    12    13   ar
    30    13    14   ar
    31    14    15    1
    32    14    16   ar
    33    16    17   ar
    34     5     6   ar
    35     6     1   ar
    36    30    25   ar
    37    17    11   ar
    38    36    33    1
    39     9    10    1
@<TRIPOS>MOLECULE
*****
 36 39 0 0 0
SMALL
GASTEIGER

@<TRIPOS>ATOM
      1 C         144.1099  141.5283  161.9127 C.ar    1  UNL1        0.1417
      2 C         143.8639  140.6605  163.1112 C.ar    1  UNL1        0.0743
      3 C         143.4548  139.2289  162.9293 C.ar    1  UNL1        0.1485
      4 C         143.2916  138.6650  161.5489 C.ar    1  UNL1        0.0422
      5 C         143.5376  139.5328  160.3504 C.ar    1  UNL1        0.0597
      6 C         143.9467  140.9644  160.5323 C.ar    1  UNL1        0.0416
      7 C         143.3745  138.9690  158.9700 C.2     1  UNL1        0.2508
      8 O         143.9760  139.6795  157.7938 O.2     1  UNL1       -0.2698
      9 N         142.6099  137.6948  158.7658 N.am    1  UNL1       -0.2646
     10 H         142.2151  137.2286  159.5377 H       1  UNL1        0.1566
     11 C         142.4468  137.1310  157.3853 C.ar    1  UNL1        0.1538
     12 C         141.1242  137.2327  156.6851 C.ar    1  UNL1        0.1328
     13 N         140.9611  136.6689  155.3047 N.ar    1  UNL1       -0.2436
     14 C         142.1206  136.0034  154.6245 C.ar    1  UNL1        0.0786
     15 C         141.9575  135.4396  153.2441 C.3     1  UNL1        0.0538
     16 C         143.4432  135.9018  155.3248 C.ar    1  UNL1        0.1150
     17 N         143.6063  136.4655  156.7051 N.ar    1  UNL1       -0.2262
     18 O         144.5190  142.9599  162.0946 O.3     1  UNL1       -0.4765
     19 C         143.4838  144.0037  162.3923 C.3     1  UNL1        0.1954
     20 C         143.7549  145.0553  163.4270 C.3     1  UNL1        0.0500
     21 C         142.1773  143.9960  161.6553 C.3     1  UNL1        0.1855
     22 C         140.3384  145.6979  162.3427 C.3     1  UNL1        0.1743
     23 O         140.9037  144.3090  162.3832 O.3     1  UNL1       -0.3473
     24 O         143.2088  138.3610  164.1278 O.3     1  UNL1       -0.4518
     25 C         142.4046  138.8848  165.2806 C.ar    1  UNL1        0.1644
     26 C         143.0652  139.1342  166.6041 C.ar    1  UNL1        0.0408
     27 C         142.2610  139.6580  167.7568 C.ar    1  UNL1        0.0269
     28 C         140.7962  139.9323  167.5862 C.ar    1  UNL1        0.1349
     29 N         140.1356  139.6829  166.2628 N.ar    1  UNL1       -0.2361
     30 C         140.9398  139.1591  165.1100 C.ar    1  UNL1        0.1363
     31 C         139.9920  140.4561  168.7390 C.2     1  UNL1        0.2668
     32 O         138.9262  139.6022  169.3594 O.2     1  UNL1       -0.2683
     33 N         140.2536  141.8339  169.2714 N.am    1  UNL1       -0.2747
     34 C         141.2019  142.9429  168.9240 C.3     1  UNL1        0.0955
     35 C         140.6235  143.7822  170.0244 C.3     1  UNL1        0.0430
     36 C         139.6751  142.6732  170.3718 C.3     1  UNL1        0.0955
@<TRIPOS>BOND
     1    22    23    1
     2    23    21    1
     3    21    19    1
     4    19    20    1
     5    19    18    1
     6    18     1    1
     7     1     2   ar
     8     2     3   ar
     9     3    24    1
    10    24    25    1
    11    25    26   ar
    12    26    27   ar
    13    27    28   ar
    14    28    31    1
    15    31    32    2
    16    31    33   am
    17    33    34    1
    18    34    35    1
    19    35    36    1
    20    28    29   ar
    21    29    30   ar
    22     3     4   ar
    23     4     5   ar
    24     5     7    1
    25     7     8    2
    26     7     9   am
    27     9    11    1
    28    11    12   ar
    29    12    13   ar
    30    13    14   ar
    31    14    15    1
    32    14    16   ar
    33    16    17   ar
    34     5     6   ar
    35     6     1   ar
    36    30    25   ar
    37    17    11   ar
    38    36    33    1
    39     9    10    1
@<TRIPOS>MOLECULE
*****
 36 39 0 0 0
SMALL
GASTEIGER

@<TRIPOS>ATOM
      1 C         141.3089  138.2353  161.3259 C.ar    1  UNL1        0.1417
      2 C         142.1697  138.3398  162.5498 C.ar    1  UNL1        0.0743
      3 C         143.5250  138.9765  162.4614 C.ar    1  UNL1        0.1485
      4 C         144.0194  139.5087  161.1491 C.ar    1  UNL1        0.0422
      5 C         143.1586  139.4042  159.9252 C.ar    1  UNL1        0.0597
      6 C         141.8033  138.7675  160.0136 C.ar    1  UNL1        0.0416
      7 C         143.6530  139.9365  158.6128 C.2     1  UNL1        0.2508
      8 O         143.7603  139.0250  157.4264 O.2     1  UNL1       -0.2698
      9 N         144.0401  141.3802  158.4869 N.am    1  UNL1       -0.2646
     10 H         143.9697  141.9784  159.2656 H       1  UNL1        0.1566
     11 C         144.5346  141.9124  157.1745 C.ar    1  UNL1        0.1538
     12 C         145.9978  141.8624  156.8482 C.ar    1  UNL1        0.1328
     13 N         146.4921  142.3946  155.5359 N.ar    1  UNL1       -0.2436
     14 C         145.5233  142.9769  154.5498 C.ar    1  UNL1        0.0786
     15 C         146.0177  143.5091  153.2374 C.3     1  UNL1        0.0538
     16 C         144.0601  143.0270  154.8761 C.ar    1  UNL1        0.1150
     17 N         143.5657  142.4947  156.1885 N.ar    1  UNL1       -0.2262
     18 O         139.9536  137.5985  161.4143 O.3     1  UNL1       -0.4765
     19 C         138.9405  138.1232  162.3882 C.3     1  UNL1        0.1954
     20 C         138.9155  137.6060  163.7960 C.3     1  UNL1        0.0500
     21 C         137.9524  139.1650  161.9542 C.3     1  UNL1        0.1855
     22 C         137.7300  141.7092  162.4315 C.3     1  UNL1        0.1743
     23 O         137.5877  140.2855  162.8823 O.3     1  UNL1       -0.3473
     24 O         144.3858  139.0810  163.6854 O.3     1  UNL1       -0.4518
     25 C         143.8503  139.7332  164.9255 C.ar    1  UNL1        0.1644
     26 C         143.4085  138.8905  166.0852 C.ar    1  UNL1        0.0408
     27 C         142.8730  139.5427  167.3253 C.ar    1  UNL1        0.0269
     28 C         142.7792  141.0377  167.4057 C.ar    1  UNL1        0.1349
     29 N         143.2209  141.8803  166.2461 N.ar    1  UNL1       -0.2361
     30 C         143.7564  141.2281  165.0060 C.ar    1  UNL1        0.1363
     31 C         142.2436  141.6899  168.6458 C.2     1  UNL1        0.2668
     32 O         143.0350  142.7653  169.3291 O.2     1  UNL1       -0.2683
     33 N         140.9166  141.2666  169.2025 N.am    1  UNL1       -0.2747
     34 C         139.8738  140.2620  168.8110 C.3     1  UNL1        0.0955
     35 C         139.0399  140.6680  169.9899 C.3     1  UNL1        0.0430
     36 C         140.0828  141.6727  170.3814 C.3     1  UNL1        0.0955
@<TRIPOS>BOND
     1    22    23    1
     2    23    21    1
     3    21    19    1
     4    19    20    1
     5    19    18    1
     6    18     1    1
     7     1     2   ar
     8     2     3   ar
     9     3    24    1
    10    24    25    1
    11    25    26   ar
    12    26    27   ar
    13    27    28   ar
    14    28    31    1
    15    31    32    2
    16    31    33   am
    17    33    34    1
    18    34    35    1
    19    35    36    1
    20    28    29   ar
    21    29    30   ar
    22     3     4   ar
    23     4     5   ar
    24     5     7    1
    25     7     8    2
    26     7     9   am
    27     9    11    1
    28    11    12   ar
    29    12    13   ar
    30    13    14   ar
    31    14    15    1
    32    14    16   ar
    33    16    17   ar
    34     5     6   ar
    35     6     1   ar
    36    30    25   ar
    37    17    11   ar
    38    36    33    1
    39     9    10    1
@<TRIPOS>MOLECULE
*****
 36 39 0 0 0
SMALL
GASTEIGER

@<TRIPOS>ATOM
      1 C         142.1625  143.3176  160.9792 C.ar    1  UNL1        0.1417
      2 C         141.6568  142.1533  161.7784 C.ar    1  UNL1        0.0743
      3 C         142.0652  140.7575  161.4110 C.ar    1  UNL1        0.1485
      4 C         142.9792  140.5260  160.2445 C.ar    1  UNL1        0.0422
      5 C         143.4849  141.6903  159.4453 C.ar    1  UNL1        0.0597
      6 C         143.0765  143.0861  159.8127 C.ar    1  UNL1        0.0416
      7 C         144.3990  141.4588  158.2787 C.2     1  UNL1        0.2508
      8 O         144.6456  140.0643  157.7843 O.2     1  UNL1       -0.2698
      9 N         145.0663  142.6219  157.6065 N.am    1  UNL1       -0.2646
     10 H         144.9045  143.5371  157.9310 H       1  UNL1        0.1566
     11 C         145.9804  142.3904  156.4398 C.ar    1  UNL1        0.1538
     12 C         145.4123  142.2441  155.0594 C.ar    1  UNL1        0.1328
     13 N         146.3263  142.0126  153.8928 N.ar    1  UNL1       -0.2436
     14 C         147.8086  141.9275  154.1068 C.ar    1  UNL1        0.0786
     15 C         148.7226  141.6960  152.9401 C.3     1  UNL1        0.0538
     16 C         148.3767  142.0738  155.4872 C.ar    1  UNL1        0.1150
     17 N         147.4626  142.3052  156.6538 N.ar    1  UNL1       -0.2262
     18 O         141.7541  144.7134  161.3466 O.3     1  UNL1       -0.4765
     19 C         141.3235  145.0242  162.7495 C.3     1  UNL1        0.1954
     20 C         142.3524  145.2346  163.8206 C.3     1  UNL1        0.0500
     21 C         139.8641  145.1245  163.0813 C.3     1  UNL1        0.1855
     22 C         137.9404  144.0499  164.4578 C.3     1  UNL1        0.1743
     23 O         139.1120  143.9075  163.5319 O.3     1  UNL1       -0.3473
     24 O         141.5595  139.5932  162.2103 O.3     1  UNL1       -0.4518
     25 C         141.0923  139.7982  163.6208 C.ar    1  UNL1        0.1644
     26 C         142.0675  139.6971  164.7561 C.ar    1  UNL1        0.0408
     27 C         141.6003  139.9021  166.1667 C.ar    1  UNL1        0.0269
     28 C         140.1578  140.2081  166.4419 C.ar    1  UNL1        0.1349
     29 N         139.1827  140.3092  165.3067 N.ar    1  UNL1       -0.2361
     30 C         139.6499  140.1042  163.8961 C.ar    1  UNL1        0.1363
     31 C         139.6905  140.4131  167.8525 C.2     1  UNL1        0.2668
     32 O         138.7778  139.4101  168.4935 O.2     1  UNL1       -0.2683
     33 N         140.1360  141.6212  168.6221 N.am    1  UNL1       -0.2747
     34 C         141.0144  142.8012  168.3287 C.3     1  UNL1        0.0955
     35 C         140.7660  143.3295  169.7105 C.3     1  UNL1        0.0430
     36 C         139.8877  142.1495  170.0038 C.3     1  UNL1        0.0955
@<TRIPOS>BOND
     1    22    23    1
     2    23    21    1
     3    21    19    1
     4    19    20    1
     5    19    18    1
     6    18     1    1
     7     1     2   ar
     8     2     3   ar
     9     3    24    1
    10    24    25    1
    11    25    26   ar
    12    26    27   ar
    13    27    28   ar
    14    28    31    1
    15    31    32    2
    16    31    33   am
    17    33    34    1
    18    34    35    1
    19    35    36    1
    20    28    29   ar
    21    29    30   ar
    22     3     4   ar
    23     4     5   ar
    24     5     7    1
    25     7     8    2
    26     7     9   am
    27     9    11    1
    28    11    12   ar
    29    12    13   ar
    30    13    14   ar
    31    14    15    1
    32    14    16   ar
    33    16    17   ar
    34     5     6   ar
    35     6     1   ar
    36    30    25   ar
    37    17    11   ar
    38    36    33    1
    39     9    10    1
@<TRIPOS>MOLECULE
*****
 36 39 0 0 0
SMALL
GASTEIGER

@<TRIPOS>ATOM
      1 C         142.8428  140.4056  160.6596 C.ar    1  UNL1        0.1417
      2 C         141.7860  139.5101  161.2352 C.ar    1  UNL1        0.0743
      3 C         140.3600  139.6517  160.7918 C.ar    1  UNL1        0.1485
      4 C         139.9909  140.6888  159.7729 C.ar    1  UNL1        0.0422
      5 C         141.0477  141.5842  159.1973 C.ar    1  UNL1        0.0597
      6 C         142.4736  141.4426  159.6407 C.ar    1  UNL1        0.0416
      7 C         140.6786  142.6213  158.1783 C.2     1  UNL1        0.2508
      8 O         139.6029  142.3352  157.1728 O.2     1  UNL1       -0.2698
      9 N         141.3851  143.9444  158.1650 N.am    1  UNL1       -0.2646
     10 H         142.0911  144.1321  158.8249 H       1  UNL1        0.1566
     11 C         141.0160  144.9815  157.1460 C.ar    1  UNL1        0.1538
     12 C         141.7085  145.0058  155.8157 C.ar    1  UNL1        0.1328
     13 N         141.3394  146.0428  154.7968 N.ar    1  UNL1       -0.2436
     14 C         140.2777  147.0556  155.1082 C.ar    1  UNL1        0.0786
     15 C         139.9086  148.0928  154.0892 C.3     1  UNL1        0.0538
     16 C         139.5851  147.0314  156.4385 C.ar    1  UNL1        0.1150
     17 N         139.9542  145.9943  157.4574 N.ar    1  UNL1       -0.2262
     18 O         144.2688  140.2640  161.1030 O.3     1  UNL1       -0.4765
     19 C         144.6866  140.7608  162.4552 C.3     1  UNL1        0.1954
     20 C         144.5180  139.8849  163.6611 C.3     1  UNL1        0.0500
     21 C         145.2731  142.1337  162.6015 C.3     1  UNL1        0.1855
     22 C         143.2867  143.8076  162.5522 C.3     1  UNL1        0.1743
     23 O         144.5837  143.3136  161.9831 O.3     1  UNL1       -0.3473
     24 O         139.3032  138.7562  161.3674 O.3     1  UNL1       -0.4518
     25 C         139.0083  138.7930  162.8376 C.ar    1  UNL1        0.1644
     26 C         139.3274  137.6053  163.6965 C.ar    1  UNL1        0.0408
     27 C         139.0325  137.6421  165.1668 C.ar    1  UNL1        0.0269
     28 C         138.4185  138.8666  165.7782 C.ar    1  UNL1        0.1349
     29 N         138.0995  140.0542  164.9193 N.ar    1  UNL1       -0.2361
     30 C         138.3944  140.0174  163.4490 C.ar    1  UNL1        0.1363
     31 C         138.1236  138.9033  167.2484 C.2     1  UNL1        0.2668
     32 O         137.0704  138.0042  167.8249 O.2     1  UNL1       -0.2683
     33 N         138.8820  139.8393  168.1423 N.am    1  UNL1       -0.2747
     34 C         139.9686  140.8531  167.9388 C.3     1  UNL1        0.0955
     35 C         139.9545  141.1629  169.4065 C.3     1  UNL1        0.0430
     36 C         138.8679  140.1490  169.6099 C.3     1  UNL1        0.0955
@<TRIPOS>BOND
     1    22    23    1
     2    23    21    1
     3    21    19    1
     4    19    20    1
     5    19    18    1
     6    18     1    1
     7     1     2   ar
     8     2     3   ar
     9     3    24    1
    10    24    25    1
    11    25    26   ar
    12    26    27   ar
    13    27    28   ar
    14    28    31    1
    15    31    32    2
    16    31    33   am
    17    33    34    1
    18    34    35    1
    19    35    36    1
    20    28    29   ar
    21    29    30   ar
    22     3     4   ar
    23     4     5   ar
    24     5     7    1
    25     7     8    2
    26     7     9   am
    27     9    11    1
    28    11    12   ar
    29    12    13   ar
    30    13    14   ar
    31    14    15    1
    32    14    16   ar
    33    16    17   ar
    34     5     6   ar
    35     6     1   ar
    36    30    25   ar
    37    17    11   ar
    38    36    33    1
    39     9    10    1
@<TRIPOS>MOLECULE
*****
 36 39 0 0 0
SMALL
GASTEIGER

@<TRIPOS>ATOM
      1 C         139.4250  143.8311  161.6385 C.ar    1  UNL1        0.1417
      2 C         140.5980  143.2354  162.3591 C.ar    1  UNL1        0.0743
      3 C         141.9694  143.3191  161.7573 C.ar    1  UNL1        0.1485
      4 C         142.1679  143.9987  160.4349 C.ar    1  UNL1        0.0422
      5 C         140.9949  144.5944  159.7143 C.ar    1  UNL1        0.0597
      6 C         139.6235  144.5106  160.3161 C.ar    1  UNL1        0.0416
      7 C         141.1934  145.2739  158.3918 C.2     1  UNL1        0.2508
      8 O         142.5564  145.7578  157.9943 O.2     1  UNL1       -0.2698
      9 N         140.0289  145.4696  157.4669 N.am    1  UNL1       -0.2646
     10 H         139.1343  145.1520  157.7277 H       1  UNL1        0.1566
     11 C         140.2273  146.1491  156.1444 C.ar    1  UNL1        0.1538
     12 C         141.1694  145.5641  155.1344 C.ar    1  UNL1        0.1328
     13 N         141.3678  146.2436  153.8120 N.ar    1  UNL1       -0.2436
     14 C         140.6241  147.5083  153.4996 C.ar    1  UNL1        0.0786
     15 C         140.8226  148.1878  152.1771 C.3     1  UNL1        0.0538
     16 C         139.6821  148.0933  154.5095 C.ar    1  UNL1        0.1150
     17 N         139.4836  147.4138  155.8319 N.ar    1  UNL1       -0.2262
     18 O         138.0536  143.7473  162.2403 O.3     1  UNL1       -0.4765
     19 C         137.7400  142.6798  163.2463 C.3     1  UNL1        0.1954
     20 C         137.7728  142.9975  164.7119 C.3     1  UNL1        0.0500
     21 C         137.3935  141.2946  162.7867 C.3     1  UNL1        0.1855
     22 C         138.7596  139.5816  164.1829 C.3     1  UNL1        0.1743
     23 O         138.4182  140.2017  162.8604 O.3     1  UNL1       -0.3473
     24 O         143.1423  142.7234  162.4779 O.3     1  UNL1       -0.4518
     25 C         142.9380  142.0091  163.7810 C.ar    1  UNL1        0.1644
     26 C         143.2369  142.7079  165.0743 C.ar    1  UNL1        0.0408
     27 C         143.0326  141.9937  166.3774 C.ar    1  UNL1        0.0269
     28 C         142.5294  140.5806  166.3872 C.ar    1  UNL1        0.1349
     29 N         142.2305  139.8818  165.0941 N.ar    1  UNL1       -0.2361
     30 C         142.4348  140.5961  163.7910 C.ar    1  UNL1        0.1363
     31 C         142.3251  139.8663  167.6903 C.2     1  UNL1        0.2668
     32 O         143.2377  138.7416  168.0803 O.2     1  UNL1       -0.2683
     33 N         141.2081  140.2768  168.6035 N.am    1  UNL1       -0.2747
     34 C         140.1290  141.3178  168.5581 C.3     1  UNL1        0.0955
     35 C         139.6284  140.8572  169.8950 C.3     1  UNL1        0.0430
     36 C         140.7074  139.8162  169.9404 C.3     1  UNL1        0.0955
@<TRIPOS>BOND
     1    22    23    1
     2    23    21    1
     3    21    19    1
     4    19    20    1
     5    19    18    1
     6    18     1    1
     7     1     2   ar
     8     2     3   ar
     9     3    24    1
    10    24    25    1
    11    25    26   ar
    12    26    27   ar
    13    27    28   ar
    14    28    31    1
    15    31    32    2
    16    31    33   am
    17    33    34    1
    18    34    35    1
    19    35    36    1
    20    28    29   ar
    21    29    30   ar
    22     3     4   ar
    23     4     5   ar
    24     5     7    1
    25     7     8    2
    26     7     9   am
    27     9    11    1
    28    11    12   ar
    29    12    13   ar
    30    13    14   ar
    31    14    15    1
    32    14    16   ar
    33    16    17   ar
    34     5     6   ar
    35     6     1   ar
    36    30    25   ar
    37    17    11   ar
    38    36    33    1
    39     9    10    1
@<TRIPOS>MOLECULE
*****
 36 39 0 0 0
SMALL
GASTEIGER

@<TRIPOS>ATOM
      1 C         142.0161  141.2633  161.9065 C.ar    1  UNL1        0.1417
      2 C         141.5354  140.3995  163.0347 C.ar    1  UNL1        0.0743
      3 C         141.2266  138.9518  162.7919 C.ar    1  UNL1        0.1485
      4 C         141.3984  138.3680  161.4210 C.ar    1  UNL1        0.0422
      5 C         141.8791  139.2317  160.2928 C.ar    1  UNL1        0.0597
      6 C         142.1879  140.6794  160.5356 C.ar    1  UNL1        0.0416
      7 C         142.0510  138.6479  158.9218 C.2     1  UNL1        0.2508
      8 O         143.3777  138.0836  158.5079 O.2     1  UNL1       -0.2698
      9 N         140.8961  138.6283  157.9648 N.am    1  UNL1       -0.2646
     10 H         140.0254  138.9987  158.2365 H       1  UNL1        0.1566
     11 C         141.0680  138.0445  156.5938 C.ar    1  UNL1        0.1538
     12 C         141.1528  136.5573  156.4171 C.ar    1  UNL1        0.1328
     13 N         141.3247  135.9736  155.0461 N.ar    1  UNL1       -0.2436
     14 C         141.4118  136.8769  153.8518 C.ar    1  UNL1        0.0786
     15 C         141.5837  136.2930  152.4808 C.3     1  UNL1        0.0538
     16 C         141.3270  138.3640  154.0285 C.ar    1  UNL1        0.1150
     17 N         141.1551  138.9478  155.3994 N.ar    1  UNL1       -0.2262
     18 O         142.3249  142.7109  162.1493 O.3     1  UNL1       -0.4765
     19 C         143.6471  143.1076  162.7361 C.3     1  UNL1        0.1954
     20 C         143.6950  143.9666  163.9648 C.3     1  UNL1        0.0500
     21 C         144.9216  142.6452  162.0941 C.3     1  UNL1        0.1855
     22 C         145.2321  140.7100  163.7996 C.3     1  UNL1        0.1743
     23 O         145.8146  141.6771  162.8118 O.3     1  UNL1       -0.3473
     24 O         140.7459  138.0881  163.9202 O.3     1  UNL1       -0.4518
     25 C         140.4295  138.7013  165.2520 C.ar    1  UNL1        0.1644
     26 C         139.0038  138.8210  165.7029 C.ar    1  UNL1        0.0408
     27 C         138.6874  139.4343  167.0348 C.ar    1  UNL1        0.0269
     28 C         139.7967  139.9279  167.9157 C.ar    1  UNL1        0.1349
     29 N         141.2223  139.8082  167.4648 N.ar    1  UNL1       -0.2361
     30 C         141.5387  139.1949  166.1329 C.ar    1  UNL1        0.1363
     31 C         139.4803  140.5411  169.2475 C.2     1  UNL1        0.2668
     32 O         138.7541  139.7413  170.2880 O.2     1  UNL1       -0.2683
     33 N         139.8903  141.9544  169.5389 N.am    1  UNL1       -0.2747
     34 C         140.6058  143.0299  168.7764 C.3     1  UNL1        0.0955
     35 C         140.4700  143.9529  169.9509 C.3     1  UNL1        0.0430
     36 C         139.7545  142.8774  170.7134 C.3     1  UNL1        0.0955
@<TRIPOS>BOND
     1    22    23    1
     2    23    21    1
     3    21    19    1
     4    19    20    1
     5    19    18    1
     6    18     1    1
     7     1     2   ar
     8     2     3   ar
     9     3    24    1
    10    24    25    1
    11    25    26   ar
    12    26    27   ar
    13    27    28   ar
    14    28    31    1
    15    31    32    2
    16    31    33   am
    17    33    34    1
    18    34    35    1
    19    35    36    1
    20    28    29   ar
    21    29    30   ar
    22     3     4   ar
    23     4     5   ar
    24     5     7    1
    25     7     8    2
    26     7     9   am
    27     9    11    1
    28    11    12   ar
    29    12    13   ar
    30    13    14   ar
    31    14    15    1
    32    14    16   ar
    33    16    17   ar
    34     5     6   ar
    35     6     1   ar
    36    30    25   ar
    37    17    11   ar
    38    36    33    1
    39     9    10    1
@<TRIPOS>MOLECULE
*****
 36 39 0 0 0
SMALL
GASTEIGER

@<TRIPOS>ATOM
      1 C         141.5188  141.7477  161.0085 C.ar    1  UNL1        0.1417
      2 C         142.4517  141.8053  162.1816 C.ar    1  UNL1        0.0743
      3 C         143.4429  140.7021  162.4065 C.ar    1  UNL1        0.1485
      4 C         143.5012  139.5414  161.4582 C.ar    1  UNL1        0.0422
      5 C         142.5682  139.4838  160.2851 C.ar    1  UNL1        0.0597
      6 C         141.5770  140.5869  160.0603 C.ar    1  UNL1        0.0416
      7 C         142.6264  138.3230  159.3368 C.2     1  UNL1        0.2508
      8 O         142.9770  136.9560  159.8452 O.2     1  UNL1       -0.2698
      9 N         142.3341  138.5292  157.8801 N.am    1  UNL1       -0.2646
     10 H         142.1041  139.4264  157.5464 H       1  UNL1        0.1566
     11 C         142.3923  137.3684  156.9318 C.ar    1  UNL1        0.1538
     12 C         141.1237  136.7321  156.4465 C.ar    1  UNL1        0.1328
     13 N         141.1819  135.5714  155.4982 N.ar    1  UNL1       -0.2436
     14 C         142.5088  135.0470  155.0352 C.ar    1  UNL1        0.0786
     15 C         142.5671  133.8862  154.0868 C.3     1  UNL1        0.0538
     16 C         143.7775  135.6833  155.5205 C.ar    1  UNL1        0.1150
     17 N         143.7192  136.8441  156.4688 N.ar    1  UNL1       -0.2262
     18 O         140.5276  142.8508  160.7837 O.3     1  UNL1       -0.4765
     19 C         139.0733  142.5282  160.6081 C.3     1  UNL1        0.1954
     20 C         138.4736  142.4921  159.2337 C.3     1  UNL1        0.0500
     21 C         138.2185  142.2416  161.8071 C.3     1  UNL1        0.1855
     22 C         137.7377  142.6085  164.3338 C.3     1  UNL1        0.1743
     23 O         138.3771  143.0599  163.0541 O.3     1  UNL1       -0.3473
     24 O         144.3759  140.7597  163.5797 O.3     1  UNL1       -0.4518
     25 C         143.8518  140.5320  164.9666 C.ar    1  UNL1        0.1644
     26 C         143.6851  139.1344  165.4853 C.ar    1  UNL1        0.0408
     27 C         143.1610  138.9067  166.8722 C.ar    1  UNL1        0.0269
     28 C         142.8036  140.0767  167.7404 C.ar    1  UNL1        0.1349
     29 N         142.9704  141.4742  167.2217 N.ar    1  UNL1       -0.2361
     30 C         143.4945  141.7019  165.8348 C.ar    1  UNL1        0.1363
     31 C         142.2795  139.8490  169.1273 C.2     1  UNL1        0.2668
     32 O         143.2182  139.4527  170.2281 O.2     1  UNL1       -0.2683
     33 N         140.8167  140.0176  169.4133 N.am    1  UNL1       -0.2747
     34 C         139.6131  140.3915  168.6000 C.3     1  UNL1        0.0955
     35 C         138.7480  140.2560  169.8179 C.3     1  UNL1        0.0430
     36 C         139.9516  139.8820  170.6312 C.3     1  UNL1        0.0955
@<TRIPOS>BOND
     1    22    23    1
     2    23    21    1
     3    21    19    1
     4    19    20    1
     5    19    18    1
     6    18     1    1
     7     1     2   ar
     8     2     3   ar
     9     3    24    1
    10    24    25    1
    11    25    26   ar
    12    26    27   ar
    13    27    28   ar
    14    28    31    1
    15    31    32    2
    16    31    33   am
    17    33    34    1
    18    34    35    1
    19    35    36    1
    20    28    29   ar
    21    29    30   ar
    22     3     4   ar
    23     4     5   ar
    24     5     7    1
    25     7     8    2
    26     7     9   am
    27     9    11    1
    28    11    12   ar
    29    12    13   ar
    30    13    14   ar
    31    14    15    1
    32    14    16   ar
    33    16    17   ar
    34     5     6   ar
    35     6     1   ar
    36    30    25   ar
    37    17    11   ar
    38    36    33    1
    39     9    10    1
@<TRIPOS>MOLECULE
*****
 36 39 0 0 0
SMALL
GASTEIGER

@<TRIPOS>ATOM
      1 C         143.9942  140.3346  161.3172 C.ar    1  UNL1        0.1417
      2 C         143.4463  139.5798  162.4919 C.ar    1  UNL1        0.0743
      3 C         142.3453  138.5805  162.2940 C.ar    1  UNL1        0.1485
      4 C         141.7921  138.3360  160.9214 C.ar    1  UNL1        0.0422
      5 C         142.3400  139.0908  159.7467 C.ar    1  UNL1        0.0597
      6 C         143.4410  140.0901  159.9445 C.ar    1  UNL1        0.0416
      7 C         141.7868  138.8463  158.3739 C.2     1  UNL1        0.2508
      8 O         142.5049  139.3801  157.1700 O.2     1  UNL1       -0.2698
      9 N         140.5157  138.0681  158.2052 N.am    1  UNL1       -0.2646
     10 H         140.0444  137.7178  158.9954 H       1  UNL1        0.1566
     11 C         139.9625  137.8236  156.8325 C.ar    1  UNL1        0.1538
     12 C         140.5135  136.7125  155.9888 C.ar    1  UNL1        0.1328
     13 N         139.9603  136.4681  154.6162 N.ar    1  UNL1       -0.2436
     14 C         138.8562  137.3347  154.0872 C.ar    1  UNL1        0.0786
     15 C         138.3030  137.0903  152.7144 C.3     1  UNL1        0.0538
     16 C         138.3053  138.4459  154.9308 C.ar    1  UNL1        0.1150
     17 N         138.8584  138.6903  156.3035 N.ar    1  UNL1       -0.2262
     18 O         145.0952  141.3339  161.5150 O.3     1  UNL1       -0.4765
     19 C         145.0244  142.3132  162.6490 C.3     1  UNL1        0.1954
     20 C         145.5794  141.9456  163.9932 C.3     1  UNL1        0.0500
     21 C         144.3986  143.6601  162.4388 C.3     1  UNL1        0.1855
     22 C         142.6892  145.1022  163.7611 C.3     1  UNL1        0.1743
     23 O         144.0664  144.5251  163.6184 O.3     1  UNL1       -0.3473
     24 O         141.7974  137.8257  163.4689 O.3     1  UNL1       -0.4518
     25 C         141.8904  138.4120  164.8465 C.ar    1  UNL1        0.1644
     26 C         143.1513  138.2566  165.6441 C.ar    1  UNL1        0.0408
     27 C         143.2443  138.8429  167.0217 C.ar    1  UNL1        0.0269
     28 C         142.0764  139.5844  167.6016 C.ar    1  UNL1        0.1349
     29 N         140.8157  139.7398  166.8039 N.ar    1  UNL1       -0.2361
     30 C         140.7227  139.1535  165.4264 C.ar    1  UNL1        0.1363
     31 C         142.1694  140.1707  168.9792 C.2     1  UNL1        0.2668
     32 O         142.8587  139.4101  170.0729 O.2     1  UNL1       -0.2683
     33 N         141.5731  141.5175  169.2629 N.am    1  UNL1       -0.2747
     34 C         140.8320  142.5411  168.4547 C.3     1  UNL1        0.0955
     35 C         140.7298  143.4222  169.6643 C.3     1  UNL1        0.0430
     36 C         141.4708  142.3987  170.4725 C.3     1  UNL1        0.0955
@<TRIPOS>BOND
     1    22    23    1
     2    23    21    1
     3    21    19    1
     4    19    20    1
     5    19    18    1
     6    18     1    1
     7     1     2   ar
     8     2     3   ar
     9     3    24    1
    10    24    25    1
    11    25    26   ar
    12    26    27   ar
    13    27    28   ar
    14    28    31    1
    15    31    32    2
    16    31    33   am
    17    33    34    1
    18    34    35    1
    19    35    36    1
    20    28    29   ar
    21    29    30   ar
    22     3     4   ar
    23     4     5   ar
    24     5     7    1
    25     7     8    2
    26     7     9   am
    27     9    11    1
    28    11    12   ar
    29    12    13   ar
    30    13    14   ar
    31    14    15    1
    32    14    16   ar
    33    16    17   ar
    34     5     6   ar
    35     6     1   ar
    36    30    25   ar
    37    17    11   ar
    38    36    33    1
    39     9    10    1
