@<TRIPOS>MOLECULE
*****
 29 30 0 0 0
SMALL
GASTEIGER

@<TRIPOS>ATOM
      1 C         142.8040  139.9787  164.7439 C.ar    1  UNL1        0.1415
      2 C         144.1310  139.2864  164.8427 C.ar    1  UNL1        0.0401
      3 C         145.3573  139.9297  164.2660 C.ar    1  UNL1        0.0397
      4 C         145.2566  141.2651  163.5905 C.ar    1  UNL1        0.1340
      5 O         146.4828  141.9084  163.0139 O.3     1  UNL1       -0.5055
      6 C         143.9295  141.9574  163.4917 C.ar    1  UNL1        0.0425
      7 C         142.7033  141.3142  164.0684 C.ar    1  UNL1        0.0716
      8 H         147.3118  141.4759  163.0756 H       1  UNL1        0.2922
      9 C         141.3762  142.0065  163.9696 C.2     1  UNL1        0.1764
     10 O         140.4536  141.6999  162.8274 O.2     1  UNL1       -0.2912
     11 C         140.9719  143.0054  165.0130 C.3     1  UNL1        0.0739
     12 C         140.3460  142.5399  166.2942 C.3     1  UNL1        0.0345
     13 C         141.1113  142.6351  167.5808 C.ar    1  UNL1       -0.0217
     14 C         142.5395  142.1806  167.6392 C.ar    1  UNL1       -0.0043
     15 C         143.3048  142.2758  168.9258 C.ar    1  UNL1       -0.0003
     16 C         142.6419  142.8255  170.1539 C.ar    1  UNL1       -0.0000
     17 C         141.2136  143.2801  170.0955 C.ar    1  UNL1       -0.0003
     18 C         140.4483  143.1849  168.8089 C.ar    1  UNL1       -0.0043
     19 O         141.5778  139.3354  165.3205 O.3     1  UNL1       -0.4727
     20 C         141.2701  137.8994  165.0154 C.3     1  UNL1        0.2358
     21 C         140.5118  137.5429  163.7713 C.3     1  UNL1        0.1697
     22 O         141.1602  136.7002  162.7133 O.3     1  UNL1       -0.3793
     23 H         140.5378  136.5642  161.9818 H       1  UNL1        0.2106
     24 C         139.1049  138.0290  163.5852 C.3     1  UNL1        0.1021
     25 N         138.7820  139.4815  163.7753 N.3     1  UNL1       -0.2953
     26 H         139.6663  139.9879  163.7312 H       1  UNL1        0.1233
     27 C         138.0835  139.9375  165.0219 C.3     1  UNL1        0.0686
     28 C         138.7962  139.4505  167.4725 C.3     1  UNL1        0.0015
     29 C         138.0535  139.0513  166.2318 C.3     1  UNL1        0.0171
@<TRIPOS>BOND
     1    28    29    1
     2    29    27    1
     3    27    25    1
     4    25    24    1
     5    24    21    1
     6    21    22    1
     7    21    20    1
     8    20    19    1
     9    19     1    1
    10     1     2   ar
    11     2     3   ar
    12     3     4   ar
    13     4     5    1
    14     4     6   ar
    15     6     7   ar
    16     7     9    1
    17     9    10    2
    18     9    11    1
    19    11    12    1
    20    12    13    1
    21    13    14   ar
    22    14    15   ar
    23    15    16   ar
    24    16    17   ar
    25    17    18   ar
    26     7     1   ar
    27    18    13   ar
    28    25    26    1
    29    22    23    1
    30     5     8    1
@<TRIPOS>MOLECULE
*****
 29 30 0 0 0
SMALL
GASTEIGER

@<TRIPOS>ATOM
      1 C         139.6532  141.0008  166.4652 C.ar    1  UNL1        0.1415
      2 C         140.0193  142.4487  166.3259 C.ar    1  UNL1        0.0401
      3 C         139.4194  143.2714  165.2244 C.ar    1  UNL1        0.0397
      4 C         138.4533  142.6462  164.2622 C.ar    1  UNL1        0.1340
      5 O         137.8534  143.4689  163.1608 O.3     1  UNL1       -0.5055
      6 C         138.0873  141.1983  164.4015 C.ar    1  UNL1        0.0425
      7 C         138.6872  140.3756  165.5030 C.ar    1  UNL1        0.0716
      8 H         138.0821  144.3734  163.0738 H       1  UNL1        0.2922
      9 C         138.3211  138.9276  165.6423 C.2     1  UNL1        0.1764
     10 O         137.4252  138.4847  166.7608 O.2     1  UNL1       -0.2912
     11 C         138.8509  137.9225  164.6629 C.3     1  UNL1        0.0739
     12 C         140.2497  137.4005  164.8067 C.3     1  UNL1        0.0345
     13 C         141.4175  138.3230  164.6190 C.ar    1  UNL1       -0.0217
     14 C         142.5722  138.2754  165.5752 C.ar    1  UNL1       -0.0043
     15 C         143.7399  139.1980  165.3875 C.ar    1  UNL1       -0.0003
     16 C         143.7531  140.1681  164.2436 C.ar    1  UNL1       -0.0000
     17 C         142.5984  140.2157  163.2873 C.ar    1  UNL1       -0.0003
     18 C         141.4306  139.2932  163.4750 C.ar    1  UNL1       -0.0043
     19 O         140.2532  140.1781  167.5667 O.3     1  UNL1       -0.4727
     20 C         139.6165  140.1647  168.9248 C.3     1  UNL1        0.2358
     21 C         140.4478  139.8777  170.1400 C.3     1  UNL1        0.1697
     22 O         139.7965  139.3652  171.3902 O.3     1  UNL1       -0.3793
     23 H         140.4705  139.2331  172.0751 H       1  UNL1        0.2106
     24 C         141.9304  140.1031  170.1048 C.3     1  UNL1        0.1021
     25 N         142.5684  141.0489  171.0786 N.3     1  UNL1       -0.2953
     26 H         142.1733  140.8388  171.9952 H       1  UNL1        0.1233
     27 C         142.4385  142.5300  170.8804 C.3     1  UNL1        0.0686
     28 C         140.4584  143.7895  169.7654 C.3     1  UNL1        0.0015
     29 C         141.7676  143.0662  169.6506 C.3     1  UNL1        0.0171
@<TRIPOS>BOND
     1    28    29    1
     2    29    27    1
     3    27    25    1
     4    25    24    1
     5    24    21    1
     6    21    22    1
     7    21    20    1
     8    20    19    1
     9    19     1    1
    10     1     2   ar
    11     2     3   ar
    12     3     4   ar
    13     4     5    1
    14     4     6   ar
    15     6     7   ar
    16     7     9    1
    17     9    10    2
    18     9    11    1
    19    11    12    1
    20    12    13    1
    21    13    14   ar
    22    14    15   ar
    23    15    16   ar
    24    16    17   ar
    25    17    18   ar
    26     7     1   ar
    27    18    13   ar
    28    25    26    1
    29    22    23    1
    30     5     8    1
@<TRIPOS>MOLECULE
*****
 29 30 0 0 0
SMALL
GASTEIGER

@<TRIPOS>ATOM
      1 C         143.3450  141.2673  166.2020 C.ar    1  UNL1        0.1415
      2 C         143.7891  142.6548  165.8450 C.ar    1  UNL1        0.0401
      3 C         144.7567  142.8659  164.7184 C.ar    1  UNL1        0.0397
      4 C         145.2802  141.6896  163.9489 C.ar    1  UNL1        0.1340
      5 O         146.2478  141.9007  162.8223 O.3     1  UNL1       -0.5055
      6 C         144.8360  140.3021  164.3060 C.ar    1  UNL1        0.0425
      7 C         143.8684  140.0909  165.4325 C.ar    1  UNL1        0.0716
      8 H         146.5253  142.7675  162.5993 H       1  UNL1        0.2922
      9 C         143.4243  138.7033  165.7896 C.2     1  UNL1        0.1764
     10 O         144.1018  137.9624  166.9040 O.2     1  UNL1       -0.2912
     11 C         142.3025  138.0567  165.0322 C.3     1  UNL1        0.0739
     12 C         141.6400  138.7888  163.9030 C.3     1  UNL1        0.0345
     13 C         140.5013  139.7246  164.1816 C.ar    1  UNL1       -0.0217
     14 C         140.6210  141.1775  163.8286 C.ar    1  UNL1       -0.0043
     15 C         139.4822  142.1133  164.1072 C.ar    1  UNL1       -0.0003
     16 C         138.2238  141.5961  164.7386 C.ar    1  UNL1       -0.0000
     17 C         138.1040  140.1431  165.0916 C.ar    1  UNL1       -0.0003
     18 C         139.2428  139.2074  164.8131 C.ar    1  UNL1       -0.0043
     19 O         142.3774  141.0561  167.3286 O.3     1  UNL1       -0.4727
     20 C         142.8764  140.9762  168.7409 C.3     1  UNL1        0.2358
     21 C         143.0715  142.2308  169.5395 C.3     1  UNL1        0.1697
     22 O         144.4461  142.6263  169.9911 O.3     1  UNL1       -0.3793
     23 H         144.3959  143.4556  170.4917 H       1  UNL1        0.2106
     24 C         141.8919  143.0900  169.8866 C.3     1  UNL1        0.1021
     25 N         140.5300  142.7409  169.3636 N.3     1  UNL1       -0.2953
     26 H         140.0822  143.6184  169.0994 H       1  UNL1        0.1233
     27 C         139.5576  142.0041  170.2363 C.3     1  UNL1        0.0686
     28 C         139.3268  140.0682  168.5189 C.3     1  UNL1        0.0015
     29 C         139.1953  140.5829  169.9218 C.3     1  UNL1        0.0171
@<TRIPOS>BOND
     1    28    29    1
     2    29    27    1
     3    27    25    1
     4    25    24    1
     5    24    21    1
     6    21    22    1
     7    21    20    1
     8    20    19    1
     9    19     1    1
    10     1     2   ar
    11     2     3   ar
    12     3     4   ar
    13     4     5    1
    14     4     6   ar
    15     6     7   ar
    16     7     9    1
    17     9    10    2
    18     9    11    1
    19    11    12    1
    20    12    13    1
    21    13    14   ar
    22    14    15   ar
    23    15    16   ar
    24    16    17   ar
    25    17    18   ar
    26     7     1   ar
    27    18    13   ar
    28    25    26    1
    29    22    23    1
    30     5     8    1
@<TRIPOS>MOLECULE
*****
 29 30 0 0 0
SMALL
GASTEIGER

@<TRIPOS>ATOM
      1 C         139.5794  141.2757  166.0539 C.ar    1  UNL1        0.1415
      2 C         140.3610  142.3975  166.6709 C.ar    1  UNL1        0.0401
      3 C         140.8306  142.2918  168.0916 C.ar    1  UNL1        0.0397
      4 C         140.5186  141.0643  168.8953 C.ar    1  UNL1        0.1340
      5 O         140.9882  140.9586  170.3159 O.3     1  UNL1       -0.5055
      6 C         139.7370  139.9426  168.2783 C.ar    1  UNL1        0.0425
      7 C         139.2674  140.0483  166.8576 C.ar    1  UNL1        0.0716
      8 H         141.4764  141.6594  170.7013 H       1  UNL1        0.2922
      9 C         138.4858  138.9264  166.2406 C.2     1  UNL1        0.1764
     10 O         137.2442  138.4192  166.9123 O.2     1  UNL1       -0.2912
     11 C         138.9457  138.3119  164.9519 C.3     1  UNL1        0.0739
     12 C         140.1648  137.4382  164.9307 C.3     1  UNL1        0.0345
     13 C         141.5055  138.0290  164.6090 C.ar    1  UNL1       -0.0217
     14 C         142.3465  138.6195  165.7017 C.ar    1  UNL1       -0.0043
     15 C         143.6872  139.2103  165.3800 C.ar    1  UNL1       -0.0003
     16 C         144.1869  139.2107  163.9657 C.ar    1  UNL1       -0.0000
     17 C         143.3458  138.6202  162.8730 C.ar    1  UNL1       -0.0003
     18 C         142.0051  138.0293  163.1946 C.ar    1  UNL1       -0.0043
     19 O         139.1098  141.3815  164.6333 O.3     1  UNL1       -0.4727
     20 C         137.8822  142.1791  164.3065 C.3     1  UNL1        0.2358
     21 C         138.0145  143.5456  163.7022 C.3     1  UNL1        0.1697
     22 O         137.5935  143.7816  162.2820 O.3     1  UNL1       -0.3793
     23 H         137.7441  144.7114  162.0504 H       1  UNL1        0.2106
     24 C         138.5679  144.6761  164.5183 C.3     1  UNL1        0.1021
     25 N         139.8345  145.3580  164.0932 N.3     1  UNL1       -0.2953
     26 H         139.6304  145.8387  163.2171 H       1  UNL1        0.1233
     27 C         141.0796  144.5532  163.8657 C.3     1  UNL1        0.0686
     28 C         143.6537  144.8096  164.1074 C.3     1  UNL1        0.0015
     29 C         142.3579  145.2403  163.4864 C.3     1  UNL1        0.0171
@<TRIPOS>BOND
     1    28    29    1
     2    29    27    1
     3    27    25    1
     4    25    24    1
     5    24    21    1
     6    21    22    1
     7    21    20    1
     8    20    19    1
     9    19     1    1
    10     1     2   ar
    11     2     3   ar
    12     3     4   ar
    13     4     5    1
    14     4     6   ar
    15     6     7   ar
    16     7     9    1
    17     9    10    2
    18     9    11    1
    19    11    12    1
    20    12    13    1
    21    13    14   ar
    22    14    15   ar
    23    15    16   ar
    24    16    17   ar
    25    17    18   ar
    26     7     1   ar
    27    18    13   ar
    28    25    26    1
    29    22    23    1
    30     5     8    1
@<TRIPOS>MOLECULE
*****
 29 30 0 0 0
SMALL
GASTEIGER

@<TRIPOS>ATOM
      1 C         142.4507  142.9118  165.1043 C.ar    1  UNL1        0.1415
      2 C         143.4479  142.4866  166.1410 C.ar    1  UNL1        0.0401
      3 C         142.9941  142.1825  167.5380 C.ar    1  UNL1        0.0397
      4 C         141.5431  142.3037  167.8983 C.ar    1  UNL1        0.1340
      5 O         141.0892  141.9997  169.2953 O.3     1  UNL1       -0.5055
      6 C         140.5459  142.7289  166.8616 C.ar    1  UNL1        0.0425
      7 C         140.9997  143.0329  165.4646 C.ar    1  UNL1        0.0716
      8 H         141.7122  141.7341  169.9429 H       1  UNL1        0.2922
      9 C         140.0024  143.4582  164.4279 C.2     1  UNL1        0.1764
     10 O         139.5449  144.8854  164.3682 O.2     1  UNL1       -0.2912
     11 C         139.4626  142.4560  163.4509 C.3     1  UNL1        0.0739
     12 C         138.2453  141.6512  163.7975 C.3     1  UNL1        0.0345
     13 C         138.3933  140.2441  164.2958 C.ar    1  UNL1       -0.0217
     14 C         138.7853  139.1500  163.3476 C.ar    1  UNL1       -0.0043
     15 C         138.9333  137.7430  163.8459 C.ar    1  UNL1       -0.0003
     16 C         138.6893  137.4300  165.2924 C.ar    1  UNL1       -0.0000
     17 C         138.2972  138.5242  166.2407 C.ar    1  UNL1       -0.0003
     18 C         138.1492  139.9312  165.7424 C.ar    1  UNL1       -0.0043
     19 O         142.9045  143.2158  163.7073 O.3     1  UNL1       -0.4727
     20 C         144.3695  143.2874  163.3935 C.3     1  UNL1        0.2358
     21 C         145.0789  142.0845  162.8460 C.3     1  UNL1        0.1697
     22 O         146.4891  141.7905  163.2643 O.3     1  UNL1       -0.3793
     23 H         146.7961  140.9838  162.8218 H       1  UNL1        0.2106
     24 C         144.3781  141.1756  161.8802 C.3     1  UNL1        0.1021
     25 N         143.5262  140.0517  162.3912 N.3     1  UNL1       -0.2953
     26 H         142.5631  140.3876  162.3888 H       1  UNL1        0.1233
     27 C         143.7809  139.4769  163.7530 C.3     1  UNL1        0.0686
     28 C         141.9461  139.1727  165.5672 C.3     1  UNL1        0.0015
     29 C         142.7375  138.6270  164.4156 C.3     1  UNL1        0.0171
@<TRIPOS>BOND
     1    28    29    1
     2    29    27    1
     3    27    25    1
     4    25    24    1
     5    24    21    1
     6    21    22    1
     7    21    20    1
     8    20    19    1
     9    19     1    1
    10     1     2   ar
    11     2     3   ar
    12     3     4   ar
    13     4     5    1
    14     4     6   ar
    15     6     7   ar
    16     7     9    1
    17     9    10    2
    18     9    11    1
    19    11    12    1
    20    12    13    1
    21    13    14   ar
    22    14    15   ar
    23    15    16   ar
    24    16    17   ar
    25    17    18   ar
    26     7     1   ar
    27    18    13   ar
    28    25    26    1
    29    22    23    1
    30     5     8    1
@<TRIPOS>MOLECULE
*****
 29 30 0 0 0
SMALL
GASTEIGER

@<TRIPOS>ATOM
      1 C         139.9165  139.1274  164.3477 C.ar    1  UNL1        0.1415
      2 C         139.7131  137.6529  164.5335 C.ar    1  UNL1        0.0401
      3 C         138.7199  137.1539  165.5407 C.ar    1  UNL1        0.0397
      4 C         137.9300  138.1293  166.3620 C.ar    1  UNL1        0.1340
      5 O         136.9367  137.6303  167.3692 O.3     1  UNL1       -0.5055
      6 C         138.1333  139.6038  166.1762 C.ar    1  UNL1        0.0425
      7 C         139.1266  140.1028  165.1690 C.ar    1  UNL1        0.0716
      8 H         136.8097  136.7092  167.4853 H       1  UNL1        0.2922
      9 C         139.3299  141.5773  164.9831 C.2     1  UNL1        0.1764
     10 O         138.3892  142.3608  164.1165 O.2     1  UNL1       -0.2912
     11 C         140.4740  142.2683  165.6640 C.3     1  UNL1        0.0739
     12 C         140.3984  142.5772  167.1299 C.3     1  UNL1        0.0345
     13 C         141.2130  141.7823  168.1069 C.ar    1  UNL1       -0.0217
     14 C         140.7424  140.4285  168.5492 C.ar    1  UNL1       -0.0043
     15 C         141.5570  139.6336  169.5262 C.ar    1  UNL1       -0.0003
     16 C         142.8422  140.1924  170.0609 C.ar    1  UNL1       -0.0000
     17 C         143.3129  141.5463  169.6185 C.ar    1  UNL1       -0.0003
     18 C         142.4983  142.3412  168.6415 C.ar    1  UNL1       -0.0043
     19 O         140.9097  139.6264  163.3405 O.3     1  UNL1       -0.4727
     20 C         141.2538  138.7862  162.1465 C.3     1  UNL1        0.2358
     21 C         142.6877  138.4705  161.8397 C.3     1  UNL1        0.1697
     22 O         143.0433  137.1799  161.1629 O.3     1  UNL1       -0.3793
     23 H         144.0043  137.1338  161.0392 H       1  UNL1        0.2106
     24 C         143.7661  139.4454  162.2096 C.3     1  UNL1        0.1021
     25 N         144.6023  139.2103  163.4325 N.3     1  UNL1       -0.2953
     26 H         144.3515  138.2876  163.7879 H       1  UNL1        0.1233
     27 C         144.5186  140.1582  164.5919 C.3     1  UNL1        0.0686
     28 C         143.1260  138.6579  166.1918 C.3     1  UNL1        0.0015
     29 C         143.4250  140.0066  165.6073 C.3     1  UNL1        0.0171
@<TRIPOS>BOND
     1    28    29    1
     2    29    27    1
     3    27    25    1
     4    25    24    1
     5    24    21    1
     6    21    22    1
     7    21    20    1
     8    20    19    1
     9    19     1    1
    10     1     2   ar
    11     2     3   ar
    12     3     4   ar
    13     4     5    1
    14     4     6   ar
    15     6     7   ar
    16     7     9    1
    17     9    10    2
    18     9    11    1
    19    11    12    1
    20    12    13    1
    21    13    14   ar
    22    14    15   ar
    23    15    16   ar
    24    16    17   ar
    25    17    18   ar
    26     7     1   ar
    27    18    13   ar
    28    25    26    1
    29    22    23    1
    30     5     8    1
@<TRIPOS>MOLECULE
*****
 29 30 0 0 0
SMALL
GASTEIGER

@<TRIPOS>ATOM
      1 C         141.1989  142.8984  165.9934 C.ar    1  UNL1        0.1415
      2 C         142.6813  142.7291  165.8393 C.ar    1  UNL1        0.0401
      3 C         143.4003  143.4071  164.7108 C.ar    1  UNL1        0.0397
      4 C         142.6369  144.2544  163.7366 C.ar    1  UNL1        0.1340
      5 O         143.3558  144.9325  162.6081 O.3     1  UNL1       -0.5055
      6 C         141.1545  144.4237  163.8907 C.ar    1  UNL1        0.0425
      7 C         140.4355  143.7457  165.0192 C.ar    1  UNL1        0.0716
      8 H         144.2819  144.8267  162.5118 H       1  UNL1        0.2922
      9 C         138.9530  143.9151  165.1733 C.2     1  UNL1        0.1764
     10 O         138.4035  145.1417  165.8390 O.2     1  UNL1       -0.2912
     11 C         138.0202  142.8576  164.6618 C.3     1  UNL1        0.0739
     12 C         138.5393  141.7645  163.7755 C.3     1  UNL1        0.0345
     13 C         138.6079  140.3552  164.2846 C.ar    1  UNL1       -0.0217
     14 C         138.2383  140.0526  165.7065 C.ar    1  UNL1       -0.0043
     15 C         138.3069  138.6433  166.2155 C.ar    1  UNL1       -0.0003
     16 C         138.7450  137.5366  165.3027 C.ar    1  UNL1       -0.0000
     17 C         139.1146  137.8392  163.8807 C.ar    1  UNL1       -0.0003
     18 C         139.0460  139.2485  163.3717 C.ar    1  UNL1       -0.0043
     19 O         140.4799  142.2204  167.1219 O.3     1  UNL1       -0.4727
     20 C         140.4336  142.8640  168.4760 C.3     1  UNL1        0.2358
     21 C         140.1058  142.0412  169.6866 C.3     1  UNL1        0.1697
     22 O         140.0160  142.6930  171.0346 O.3     1  UNL1       -0.3793
     23 H         139.7975  142.0248  171.7029 H       1  UNL1        0.2106
     24 C         139.8679  140.5665  169.5492 C.3     1  UNL1        0.1021
     25 N         140.6895  139.5969  170.3460 N.3     1  UNL1       -0.2953
     26 H         140.7762  139.9862  171.2848 H       1  UNL1        0.1233
     27 C         142.0751  139.2405  169.8954 C.3     1  UNL1        0.0686
     28 C         142.6156  139.2716  167.3543 C.3     1  UNL1        0.0015
     29 C         142.6755  139.9249  168.7033 C.3     1  UNL1        0.0171
@<TRIPOS>BOND
     1    28    29    1
     2    29    27    1
     3    27    25    1
     4    25    24    1
     5    24    21    1
     6    21    22    1
     7    21    20    1
     8    20    19    1
     9    19     1    1
    10     1     2   ar
    11     2     3   ar
    12     3     4   ar
    13     4     5    1
    14     4     6   ar
    15     6     7   ar
    16     7     9    1
    17     9    10    2
    18     9    11    1
    19    11    12    1
    20    12    13    1
    21    13    14   ar
    22    14    15   ar
    23    15    16   ar
    24    16    17   ar
    25    17    18   ar
    26     7     1   ar
    27    18    13   ar
    28    25    26    1
    29    22    23    1
    30     5     8    1
@<TRIPOS>MOLECULE
*****
 29 30 0 0 0
SMALL
GASTEIGER

@<TRIPOS>ATOM
      1 C         140.8143  139.2111  165.4439 C.ar    1  UNL1        0.1415
      2 C         140.0114  138.1267  164.7888 C.ar    1  UNL1        0.0401
      3 C         138.6956  137.7090  165.3755 C.ar    1  UNL1        0.0397
      4 C         138.1827  138.3759  166.6173 C.ar    1  UNL1        0.1340
      5 O         136.8669  137.9583  167.2040 O.3     1  UNL1       -0.5055
      6 C         138.9856  139.4604  167.2725 C.ar    1  UNL1        0.0425
      7 C         140.3014  139.8780  166.6858 C.ar    1  UNL1        0.0716
      8 H         136.3653  137.2808  166.7948 H       1  UNL1        0.2922
      9 C         141.1043  140.9625  167.3410 C.2     1  UNL1        0.1764
     10 O         141.7588  140.7139  168.6675 O.2     1  UNL1       -0.2912
     11 C         141.2527  142.2956  166.6695 C.3     1  UNL1        0.0739
     12 C         140.0820  143.2301  166.5908 C.3     1  UNL1        0.0345
     13 C         139.3404  143.3960  165.2975 C.ar    1  UNL1       -0.0217
     14 C         139.5193  144.6442  164.4851 C.ar    1  UNL1       -0.0043
     15 C         138.7777  144.8100  163.1919 C.ar    1  UNL1       -0.0003
     16 C         137.8573  143.7277  162.7110 C.ar    1  UNL1       -0.0000
     17 C         137.6784  142.4794  163.5234 C.ar    1  UNL1       -0.0003
     18 C         138.4200  142.3136  164.8166 C.ar    1  UNL1       -0.0043
     19 O         142.1301  139.6288  164.8572 O.3     1  UNL1       -0.4727
     20 C         142.9076  138.6723  164.0025 C.3     1  UNL1        0.2358
     21 C         144.1447  139.1362  163.2923 C.3     1  UNL1        0.1697
     22 O         144.4686  138.6071  161.9267 O.3     1  UNL1       -0.3793
     23 H         145.2953  139.0059  161.6131 H       1  UNL1        0.2106
     24 C         145.0579  140.1294  163.9479 C.3     1  UNL1        0.1021
     25 N         144.4877  141.3446  164.6173 N.3     1  UNL1       -0.2953
     26 H         143.5067  141.1419  164.8094 H       1  UNL1        0.1233
     27 C         144.5271  142.6725  163.9209 C.3     1  UNL1        0.0686
     28 C         143.2254  144.9210  163.9354 C.3     1  UNL1        0.0015
     29 C         144.0807  143.9105  164.6407 C.3     1  UNL1        0.0171
@<TRIPOS>BOND
     1    28    29    1
     2    29    27    1
     3    27    25    1
     4    25    24    1
     5    24    21    1
     6    21    22    1
     7    21    20    1
     8    20    19    1
     9    19     1    1
    10     1     2   ar
    11     2     3   ar
    12     3     4   ar
    13     4     5    1
    14     4     6   ar
    15     6     7   ar
    16     7     9    1
    17     9    10    2
    18     9    11    1
    19    11    12    1
    20    12    13    1
    21    13    14   ar
    22    14    15   ar
    23    15    16   ar
    24    16    17   ar
    25    17    18   ar
    26     7     1   ar
    27    18    13   ar
    28    25    26    1
    29    22    23    1
    30     5     8    1
@<TRIPOS>MOLECULE
*****
 29 30 0 0 0
SMALL
GASTEIGER

@<TRIPOS>ATOM
      1 C         139.5034  142.1421  163.7289 C.ar    1  UNL1        0.1415
      2 C         138.2692  142.9025  163.3435 C.ar    1  UNL1        0.0401
      3 C         137.7968  144.0454  164.1924 C.ar    1  UNL1        0.0397
      4 C         138.5586  144.4279  165.4266 C.ar    1  UNL1        0.1340
      5 O         138.0862  145.5709  166.2754 O.3     1  UNL1       -0.5055
      6 C         139.7928  143.6675  165.8119 C.ar    1  UNL1        0.0425
      7 C         140.2651  142.5246  164.9631 C.ar    1  UNL1        0.0716
      8 H         137.3153  146.0459  166.0347 H       1  UNL1        0.2922
      9 C         141.4994  141.7641  165.3485 C.2     1  UNL1        0.1764
     10 O         141.5550  140.2775  165.1565 O.2     1  UNL1       -0.2912
     11 C         142.6780  142.4904  165.9260 C.3     1  UNL1        0.0739
     12 C         143.1467  142.1741  167.3153 C.3     1  UNL1        0.0345
     13 C         142.1721  141.6740  168.3400 C.ar    1  UNL1       -0.0217
     14 C         141.1220  142.5943  168.8882 C.ar    1  UNL1       -0.0043
     15 C         140.1474  142.0942  169.9129 C.ar    1  UNL1       -0.0003
     16 C         140.2228  140.6739  170.3894 C.ar    1  UNL1       -0.0000
     17 C         141.2729  139.7536  169.8412 C.ar    1  UNL1       -0.0003
     18 C         142.2475  140.2537  168.8165 C.ar    1  UNL1       -0.0043
     19 O         139.9757  140.9991  162.8800 O.3     1  UNL1       -0.4727
     20 C         139.0978  140.4625  161.7886 C.3     1  UNL1        0.2358
     21 C         138.4871  139.0987  161.9196 C.3     1  UNL1        0.1697
     22 O         137.0924  138.8510  161.4265 O.3     1  UNL1       -0.3793
     23 H         136.8528  137.9246  161.5859 H       1  UNL1        0.2106
     24 C         139.2713  137.9826  162.5437 C.3     1  UNL1        0.1021
     25 N         139.7354  138.0959  163.9656 N.3     1  UNL1       -0.2953
     26 H         140.4224  137.3561  164.1110 H       1  UNL1        0.1233
     27 C         138.7456  137.9942  165.0880 C.3     1  UNL1        0.0686
     28 C         138.8537  139.5958  167.1309 C.3     1  UNL1        0.0015
     29 C         138.2806  139.2340  165.7927 C.3     1  UNL1        0.0171
@<TRIPOS>BOND
     1    28    29    1
     2    29    27    1
     3    27    25    1
     4    25    24    1
     5    24    21    1
     6    21    22    1
     7    21    20    1
     8    20    19    1
     9    19     1    1
    10     1     2   ar
    11     2     3   ar
    12     3     4   ar
    13     4     5    1
    14     4     6   ar
    15     6     7   ar
    16     7     9    1
    17     9    10    2
    18     9    11    1
    19    11    12    1
    20    12    13    1
    21    13    14   ar
    22    14    15   ar
    23    15    16   ar
    24    16    17   ar
    25    17    18   ar
    26     7     1   ar
    27    18    13   ar
    28    25    26    1
    29    22    23    1
    30     5     8    1
