@<TRIPOS>MOLECULE
*****
 18 18 0 0 0
SMALL
GASTEIGER

@<TRIPOS>ATOM
      1 C         141.2654  141.4620  168.7248 C.3     1  UNL1        0.1379
      2 C         140.5305  140.3328  168.0654 C.2     1  UNL1        0.2366
      3 O         141.0305  139.7684  166.7686 O.2     1  UNL1       -0.2742
      4 N         139.2957  139.7680  168.7027 N.am    1  UNL1       -0.2390
      5 C         138.7958  140.3323  169.9994 C.2     1  UNL1        0.3122
      6 O         137.5609  139.7675  170.6367 O.2     1  UNL1       -0.2520
      7 N         139.5307  141.4615  170.6588 N.am    1  UNL1       -0.2390
      8 C         140.7655  142.0263  170.0215 C.2     1  UNL1        0.2366
      9 O         141.5004  143.1555  170.6810 O.2     1  UNL1       -0.2742
     10 H         138.8134  139.0269  168.2698 H       1  UNL1        0.1591
     11 H         139.2025  141.8319  171.5099 H       1  UNL1        0.1591
     12 C         142.1242  141.2662  167.5106 C.3     1  UNL1        0.0165
     13 C         142.9881  140.0457  167.3919 C.3     1  UNL1        0.0010
     14 C         142.1190  142.2908  166.4151 C.3     1  UNL1        0.0009
     15 C         144.3047  143.3223  165.4619 C.3     1  UNL1        0.0000
     16 C         143.2126  142.2968  165.3885 C.3     1  UNL1        0.0000
     17 C         142.2986  142.5232  168.9625 C.3     1  UNL1        0.0174
     18 C         143.6180  142.1611  169.5772 C.3     1  UNL1        0.0010
@<TRIPOS>BOND
     1    15    16    1
     2    16    14    1
     3    14    12    1
     4    12    13    1
     5    12     1    1
     6     1    17    1
     7    17    18    1
     8     1     2    1
     9     2     3    2
    10     2     4   am
    11     4     5   am
    12     5     6    2
    13     5     7   am
    14     7     8   am
    15     8     9    2
    16     8     1    1
    17     4    10    1
    18     7    11    1
@<TRIPOS>MOLECULE
*****
 18 18 0 0 0
SMALL
GASTEIGER

@<TRIPOS>ATOM
      1 C         141.2025  142.1059  169.0528 C.3     1  UNL1        0.1379
      2 C         142.3411  142.1279  168.0765 C.2     1  UNL1        0.2366
      3 O         142.1039  141.7691  166.6394 O.2     1  UNL1       -0.2742
      4 N         143.7168  142.5087  168.5372 N.am    1  UNL1       -0.2390
      5 C         143.9541  142.8675  169.9742 C.2     1  UNL1        0.3122
      6 O         145.3298  143.2483  170.4349 O.2     1  UNL1       -0.2520
      7 N         142.8155  142.8455  170.9504 N.am    1  UNL1       -0.2390
      8 C         141.4397  142.4647  170.4897 C.2     1  UNL1        0.2366
      9 O         140.3011  142.4428  171.4661 O.2     1  UNL1       -0.2742
     10 H         144.4641  142.5231  167.8964 H       1  UNL1        0.1591
     11 H         142.9712  143.0810  171.8936 H       1  UNL1        0.1591
     12 C         140.4831  141.6892  167.8042 C.3     1  UNL1        0.0165
     13 C         139.8573  142.7251  166.9180 C.3     1  UNL1        0.0010
     14 C         140.3895  140.2367  167.4419 C.3     1  UNL1        0.0009
     15 C         138.1907  138.9916  166.8376 C.3     1  UNL1        0.0000
     16 C         139.3938  139.7822  166.4162 C.3     1  UNL1        0.0000
     17 C         139.8141  141.9392  169.5955 C.3     1  UNL1        0.0174
     18 C         139.3228  140.5792  169.9939 C.3     1  UNL1        0.0010
@<TRIPOS>BOND
     1    15    16    1
     2    16    14    1
     3    14    12    1
     4    12    13    1
     5    12     1    1
     6     1    17    1
     7    17    18    1
     8     1     2    1
     9     2     3    2
    10     2     4   am
    11     4     5   am
    12     5     6    2
    13     5     7   am
    14     7     8   am
    15     8     9    2
    16     8     1    1
    17     4    10    1
    18     7    11    1
@<TRIPOS>MOLECULE
*****
 18 18 0 0 0
SMALL
GASTEIGER

@<TRIPOS>ATOM
      1 C         139.8997  141.0374  166.9450 C.3     1  UNL1        0.1379
      2 C         139.6574  140.4287  168.2943 C.2     1  UNL1        0.2366
      3 O         140.4287  140.9145  169.4857 O.2     1  UNL1       -0.2742
      4 N         138.6439  139.3343  168.4524 N.am    1  UNL1       -0.2390
      5 C         137.8727  138.8485  167.2611 C.2     1  UNL1        0.3122
      6 O         136.8592  137.7540  167.4192 O.2     1  UNL1       -0.2520
      7 N         138.1150  139.4572  165.9118 N.am    1  UNL1       -0.2390
      8 C         139.1285  140.5517  165.7537 C.2     1  UNL1        0.2366
      9 O         139.3707  141.1604  164.4043 O.2     1  UNL1       -0.2742
     10 H         138.4849  138.9348  169.3380 H       1  UNL1        0.1591
     11 H         137.6088  139.1384  165.1299 H       1  UNL1        0.1591
     12 C         140.8724  141.8302  167.7668 C.3     1  UNL1        0.0165
     13 C         140.3869  142.9741  168.6069 C.3     1  UNL1        0.0010
     14 C         142.3306  141.4792  167.7485 C.3     1  UNL1        0.0009
     15 C         143.7674  142.2437  169.7736 C.3     1  UNL1        0.0000
     16 C         143.3356  142.4177  168.3477 C.3     1  UNL1        0.0000
     17 C         140.4798  141.9215  165.8810 C.3     1  UNL1        0.0174
     18 C         140.0036  143.3369  165.7401 C.3     1  UNL1        0.0010
@<TRIPOS>BOND
     1    15    16    1
     2    16    14    1
     3    14    12    1
     4    12    13    1
     5    12     1    1
     6     1    17    1
     7    17    18    1
     8     1     2    1
     9     2     3    2
    10     2     4   am
    11     4     5   am
    12     5     6    2
    13     5     7   am
    14     7     8   am
    15     8     9    2
    16     8     1    1
    17     4    10    1
    18     7    11    1
@<TRIPOS>MOLECULE
*****
 18 18 0 0 0
SMALL
GASTEIGER

@<TRIPOS>ATOM
      1 C         141.0323  140.8882  169.5370 C.3     1  UNL1        0.1379
      2 C         141.8331  139.8836  168.7628 C.2     1  UNL1        0.2366
      3 O         141.5101  139.6163  167.3225 O.2     1  UNL1       -0.2742
      4 N         142.9570  139.1464  169.4287 N.am    1  UNL1       -0.2390
      5 C         143.2800  139.4137  170.8688 C.2     1  UNL1        0.3122
      6 O         144.4039  138.6765  171.5348 O.2     1  UNL1       -0.2520
      7 N         142.4792  140.4183  171.6431 N.am    1  UNL1       -0.2390
      8 C         141.3554  141.1555  170.9772 C.2     1  UNL1        0.2366
      9 O         140.5545  142.1601  171.7515 O.2     1  UNL1       -0.2742
     10 H         143.4826  138.4871  168.9205 H       1  UNL1        0.1591
     11 H         142.6912  140.5938  172.5884 H       1  UNL1        0.1591
     12 C         140.3487  140.9809  168.2050 C.3     1  UNL1        0.0165
     13 C         139.1583  140.1168  167.9112 C.3     1  UNL1        0.0010
     14 C         140.8554  141.9377  167.1670 C.3     1  UNL1        0.0009
     15 C         139.6655  143.7159  165.6932 C.3     1  UNL1        0.0000
     16 C         140.0003  142.2830  165.9840 C.3     1  UNL1        0.0000
     17 C         139.9941  141.9250  169.8487 C.3     1  UNL1        0.0174
     18 C         140.2684  143.3713  169.5610 C.3     1  UNL1        0.0010
@<TRIPOS>BOND
     1    15    16    1
     2    16    14    1
     3    14    12    1
     4    12    13    1
     5    12     1    1
     6     1    17    1
     7    17    18    1
     8     1     2    1
     9     2     3    2
    10     2     4   am
    11     4     5   am
    12     5     6    2
    13     5     7   am
    14     7     8   am
    15     8     9    2
    16     8     1    1
    17     4    10    1
    18     7    11    1
@<TRIPOS>MOLECULE
*****
 18 18 0 0 0
SMALL
GASTEIGER

@<TRIPOS>ATOM
      1 C         140.5287  141.1952  169.1190 C.3     1  UNL1        0.1379
      2 C         140.4437  142.3337  168.1461 C.2     1  UNL1        0.2366
      3 O         140.5952  142.0769  166.6760 O.2     1  UNL1       -0.2742
      4 N         140.2071  143.7290  168.6433 N.am    1  UNL1       -0.2390
      5 C         140.0556  143.9857  170.1133 C.2     1  UNL1        0.3122
      6 O         139.8191  145.3810  170.6105 O.2     1  UNL1       -0.2520
      7 N         140.1407  142.8472  171.0862 N.am    1  UNL1       -0.2390
      8 C         140.3772  141.4519  170.5890 C.2     1  UNL1        0.2366
      9 O         140.4623  140.3134  171.5619 O.2     1  UNL1       -0.2742
     10 H         140.1513  144.4762  168.0047 H       1  UNL1        0.1591
     11 H         140.0412  143.0157  172.0510 H       1  UNL1        0.1591
     12 C         140.7346  140.4535  167.8314 C.3     1  UNL1        0.0165
     13 C         139.5874  139.7297  167.1912 C.3     1  UNL1        0.0010
     14 C         142.0877  140.4357  167.1843 C.3     1  UNL1        0.0009
     15 C         143.5186  138.3347  166.6476 C.3     1  UNL1        0.0000
     16 C         142.4590  139.3202  166.2528 C.3     1  UNL1        0.0000
     17 C         140.6853  139.7990  169.6447 C.3     1  UNL1        0.0174
     18 C         142.0517  139.2624  169.9527 C.3     1  UNL1        0.0010
@<TRIPOS>BOND
     1    15    16    1
     2    16    14    1
     3    14    12    1
     4    12    13    1
     5    12     1    1
     6     1    17    1
     7    17    18    1
     8     1     2    1
     9     2     3    2
    10     2     4   am
    11     4     5   am
    12     5     6    2
    13     5     7   am
    14     7     8   am
    15     8     9    2
    16     8     1    1
    17     4    10    1
    18     7    11    1
@<TRIPOS>MOLECULE
*****
 18 18 0 0 0
SMALL
GASTEIGER

@<TRIPOS>ATOM
      1 C         140.6350  140.4186  168.0762 C.3     1  UNL1        0.1379
      2 C         141.7649  141.2749  168.5662 C.2     1  UNL1        0.2366
      3 O         142.9542  141.5229  167.6863 O.2     1  UNL1       -0.2742
      4 N         141.7055  141.8832  169.9360 N.am    1  UNL1       -0.2390
      5 C         140.5163  141.6352  170.8158 C.2     1  UNL1        0.3122
      6 O         140.4569  142.2436  172.1857 O.2     1  UNL1       -0.2520
      7 N         139.3864  140.7789  170.3259 N.am    1  UNL1       -0.2390
      8 C         139.4458  140.1706  168.9560 C.2     1  UNL1        0.2366
      9 O         138.3159  139.3143  168.4661 O.2     1  UNL1       -0.2742
     10 H         142.4471  142.4452  170.2576 H       1  UNL1        0.1591
     11 H         138.6059  140.6162  170.9033 H       1  UNL1        0.1591
     12 C         141.5412  140.3624  166.8821 C.3     1  UNL1        0.0165
     13 C         141.5711  141.5035  165.9090 C.3     1  UNL1        0.0010
     14 C         142.4175  139.1652  166.6612 C.3     1  UNL1        0.0009
     15 C         141.8207  137.9075  164.4676 C.3     1  UNL1        0.0000
     16 C         142.7751  138.7445  165.2666 C.3     1  UNL1        0.0000
     17 C         139.8198  139.5428  167.1715 C.3     1  UNL1        0.0174
     18 C         139.0106  140.1534  166.0660 C.3     1  UNL1        0.0010
@<TRIPOS>BOND
     1    15    16    1
     2    16    14    1
     3    14    12    1
     4    12    13    1
     5    12     1    1
     6     1    17    1
     7    17    18    1
     8     1     2    1
     9     2     3    2
    10     2     4   am
    11     4     5   am
    12     5     6    2
    13     5     7   am
    14     7     8   am
    15     8     9    2
    16     8     1    1
    17     4    10    1
    18     7    11    1
@<TRIPOS>MOLECULE
*****
 18 18 0 0 0
SMALL
GASTEIGER

@<TRIPOS>ATOM
      1 C         140.0567  139.6670  166.6208 C.3     1  UNL1        0.1379
      2 C         138.7772  139.3961  167.3554 C.2     1  UNL1        0.2366
      3 O         137.5694  138.9163  166.6062 O.2     1  UNL1       -0.2742
      4 N         138.7055  139.6048  168.8390 N.am    1  UNL1       -0.2390
      5 C         139.9133  140.0846  169.5882 C.2     1  UNL1        0.3122
      6 O         139.8416  140.2933  171.0718 O.2     1  UNL1       -0.2520
      7 N         141.1927  140.3555  168.8536 N.am    1  UNL1       -0.2390
      8 C         141.2644  140.1468  167.3699 C.2     1  UNL1        0.2366
      9 O         142.5439  140.4178  166.6354 O.2     1  UNL1       -0.2742
     10 H         137.8658  139.4270  169.3211 H       1  UNL1        0.1591
     11 H         141.9854  140.6704  169.3453 H       1  UNL1        0.1591
     12 C         139.1885  139.2285  165.4788 C.3     1  UNL1        0.0165
     13 C         138.1734  140.1711  164.9035 C.3     1  UNL1        0.0010
     14 C         139.3356  137.8475  164.9122 C.3     1  UNL1        0.0009
     15 C         139.9094  137.8357  162.3784 C.3     1  UNL1        0.0000
     16 C         138.9392  137.5734  163.4918 C.3     1  UNL1        0.0000
     17 C         141.0347  139.7857  165.4896 C.3     1  UNL1        0.0174
     18 C         140.9866  140.9762  164.5784 C.3     1  UNL1        0.0010
@<TRIPOS>BOND
     1    15    16    1
     2    16    14    1
     3    14    12    1
     4    12    13    1
     5    12     1    1
     6     1    17    1
     7    17    18    1
     8     1     2    1
     9     2     3    2
    10     2     4   am
    11     4     5   am
    12     5     6    2
    13     5     7   am
    14     7     8   am
    15     8     9    2
    16     8     1    1
    17     4    10    1
    18     7    11    1
@<TRIPOS>MOLECULE
*****
 18 18 0 0 0
SMALL
GASTEIGER

@<TRIPOS>ATOM
      1 C         140.0987  141.0981  167.8829 C.3     1  UNL1        0.1379
      2 C         139.7478  140.5747  166.5217 C.2     1  UNL1        0.2366
      3 O         140.4444  141.1149  165.3079 O.2     1  UNL1       -0.2742
      4 N         138.7004  139.5112  166.3741 N.am    1  UNL1       -0.2390
      5 C         138.0039  138.9710  167.5878 C.2     1  UNL1        0.3122
      6 O         136.9564  137.9075  167.4403 O.2     1  UNL1       -0.2520
      7 N         138.3548  139.4944  168.9490 N.am    1  UNL1       -0.2390
      8 C         139.4022  140.5579  169.0965 C.2     1  UNL1        0.2366
      9 O         139.7531  141.0813  170.4578 O.2     1  UNL1       -0.2742
     10 H         138.4701  139.1677  165.4807 H       1  UNL1        0.1591
     11 H         137.8976  139.1398  169.7456 H       1  UNL1        0.1591
     12 C         141.0294  141.9190  167.0403 C.3     1  UNL1        0.0165
     13 C         140.4940  143.0565  166.2221 C.3     1  UNL1        0.0010
     14 C         142.4954  141.6025  167.0159 C.3     1  UNL1        0.0009
     15 C         144.0414  142.3282  165.0581 C.3     1  UNL1        0.0000
     16 C         143.4640  142.5801  166.4193 C.3     1  UNL1        0.0000
     17 C         140.7729  141.9066  168.9515 C.3     1  UNL1        0.0174
     18 C         140.3694  143.3332  169.1795 C.3     1  UNL1        0.0010
@<TRIPOS>BOND
     1    15    16    1
     2    16    14    1
     3    14    12    1
     4    12    13    1
     5    12     1    1
     6     1    17    1
     7    17    18    1
     8     1     2    1
     9     2     3    2
    10     2     4   am
    11     4     5   am
    12     5     6    2
    13     5     7   am
    14     7     8   am
    15     8     9    2
    16     8     1    1
    17     4    10    1
    18     7    11    1
@<TRIPOS>MOLECULE
*****
 18 18 0 0 0
SMALL
GASTEIGER

@<TRIPOS>ATOM
      1 C         141.3876  140.3045  168.8325 C.3     1  UNL1        0.1379
      2 C         140.2052  139.9655  167.9741 C.2     1  UNL1        0.2366
      3 O         140.3675  139.8444  166.4878 O.2     1  UNL1       -0.2742
      4 N         138.8605  139.7474  168.6020 N.am    1  UNL1       -0.2390
      5 C         138.6982  139.8684  170.0882 C.2     1  UNL1        0.3122
      6 O         137.3535  139.6504  170.7160 O.2     1  UNL1       -0.2520
      7 N         139.8806  140.2075  170.9466 N.am    1  UNL1       -0.2390
      8 C         141.2253  140.4256  170.3188 C.2     1  UNL1        0.2366
      9 O         142.4078  140.7646  171.1773 O.2     1  UNL1       -0.2742
     10 H         138.0844  139.5249  168.0385 H       1  UNL1        0.1591
     11 H         139.7741  140.2869  171.9221 H       1  UNL1        0.1591
     12 C         142.0392  140.3008  167.4814 C.3     1  UNL1        0.0165
     13 C         141.8911  141.4861  166.5741 C.3     1  UNL1        0.0010
     14 C         142.8388  139.1119  167.0376 C.3     1  UNL1        0.0009
     15 C         143.0032  138.5901  164.4978 C.3     1  UNL1        0.0000
     16 C         143.6035  139.1612  165.7481 C.3     1  UNL1        0.0000
     17 C         142.7964  140.6423  169.2217 C.3     1  UNL1        0.0174
     18 C         143.2857  142.0561  169.1140 C.3     1  UNL1        0.0010
@<TRIPOS>BOND
     1    15    16    1
     2    16    14    1
     3    14    12    1
     4    12    13    1
     5    12     1    1
     6     1    17    1
     7    17    18    1
     8     1     2    1
     9     2     3    2
    10     2     4   am
    11     4     5   am
    12     5     6    2
    13     5     7   am
    14     7     8   am
    15     8     9    2
    16     8     1    1
    17     4    10    1
    18     7    11    1
