@<TRIPOS>MOLECULE
*****
 19 19 0 0 0
SMALL
GASTEIGER

@<TRIPOS>ATOM
      1 C         143.8329  142.5011  159.9444 C.1     1  UNL1       -0.0599
      2 C         144.8387  142.5107  158.8316 C.1     1  UNL1       -0.0124
      3 C         145.8444  142.5203  157.7187 C.1     1  UNL1       -0.0095
      4 C         146.8502  142.5298  156.6059 C.1     1  UNL1       -0.0512
      5 C         147.8560  142.5394  155.4931 C.ar    1  UNL1        0.0426
      6 C         147.6037  143.3571  154.2612 C.ar    1  UNL1        0.0091
      7 C         148.6095  143.3667  153.1484 C.ar    1  UNL1        0.0120
      8 C         149.8675  142.5585  153.2675 C.ar    1  UNL1        0.0577
      9 CL        150.8733  142.5681  152.1547 Cl      1  UNL1       -0.0822
     10 C         150.1198  141.7409  154.4994 C.ar    1  UNL1        0.0120
     11 C         149.1140  141.7313  155.6122 C.ar    1  UNL1        0.0091
     12 C         142.8271  142.4915  161.0572 C.3     1  UNL1        0.1508
     13 N         142.9849  143.4274  162.2188 N.3     1  UNL1       -0.2617
     14 C         141.7758  144.0588  162.8427 C.3     1  UNL1        0.0730
     15 C         141.9127  145.3346  163.6199 C.3     1  UNL1        0.0188
     16 C         144.3518  143.7317  162.7564 C.3     1  UNL1        0.0730
     17 C         144.9099  142.9215  163.8887 C.3     1  UNL1        0.0174
     18 C         144.9946  140.3332  163.6794 C.3     1  UNL1        0.0000
     19 C         145.6794  141.6656  163.6043 C.3     1  UNL1        0.0014
@<TRIPOS>BOND
     1    18    19    1
     2    19    17    1
     3    17    16    1
     4    16    13    1
     5    13    14    1
     6    14    15    1
     7    13    12    1
     8    12     1    1
     9     1     2    3
    10     2     3    1
    11     3     4    3
    12     4     5    1
    13     5     6   ar
    14     6     7   ar
    15     7     8   ar
    16     8     9    1
    17     8    10   ar
    18    10    11   ar
    19    11     5   ar
@<TRIPOS>MOLECULE
*****
 19 19 0 0 0
SMALL
GASTEIGER

@<TRIPOS>ATOM
      1 C         142.7428  137.8795  161.4056 C.1     1  UNL1       -0.0599
      2 C         142.4600  138.2896  162.8204 C.1     1  UNL1       -0.0124
      3 C         142.1772  138.6997  164.2353 C.1     1  UNL1       -0.0095
      4 C         141.8944  139.1098  165.6501 C.1     1  UNL1       -0.0512
      5 C         141.6116  139.5199  167.0650 C.ar    1  UNL1        0.0426
      6 C         140.2480  140.0175  167.4434 C.ar    1  UNL1        0.0091
      7 C         139.9652  140.4276  168.8582 C.ar    1  UNL1        0.0120
      8 C         141.0459  140.3401  169.8947 C.ar    1  UNL1        0.0577
      9 CL        140.7631  140.7502  171.3096 Cl      1  UNL1       -0.0822
     10 C         142.4095  139.8426  169.5164 C.ar    1  UNL1        0.0120
     11 C         142.6923  139.4325  168.1015 C.ar    1  UNL1        0.0091
     12 C         143.0256  137.4694  159.9907 C.3     1  UNL1        0.1508
     13 N         142.2634  138.0967  158.8614 N.3     1  UNL1       -0.2617
     14 C         142.6062  137.7520  157.4424 C.3     1  UNL1        0.0730
     15 C         141.7183  136.8312  156.6588 C.3     1  UNL1        0.0188
     16 C         141.1583  139.0689  159.1511 C.3     1  UNL1        0.0730
     17 C         139.7448  138.5825  159.2747 C.3     1  UNL1        0.0174
     18 C         138.9587  138.0438  161.6917 C.3     1  UNL1        0.0000
     19 C         138.9334  138.9356  160.4859 C.3     1  UNL1        0.0014
@<TRIPOS>BOND
     1    18    19    1
     2    19    17    1
     3    17    16    1
     4    16    13    1
     5    13    14    1
     6    14    15    1
     7    13    12    1
     8    12     1    1
     9     1     2    3
    10     2     3    1
    11     3     4    3
    12     4     5    1
    13     5     6   ar
    14     6     7   ar
    15     7     8   ar
    16     8     9    1
    17     8    10   ar
    18    10    11   ar
    19    11     5   ar
@<TRIPOS>MOLECULE
*****
 19 19 0 0 0
SMALL
GASTEIGER

@<TRIPOS>ATOM
      1 C         140.9539  144.6867  161.5612 C.1     1  UNL1       -0.0599
      2 C         140.7877  144.0194  162.8943 C.1     1  UNL1       -0.0124
      3 C         140.6216  143.3522  164.2274 C.1     1  UNL1       -0.0095
      4 C         140.4554  142.6849  165.5606 C.1     1  UNL1       -0.0512
      5 C         140.2893  142.0177  166.8937 C.ar    1  UNL1        0.0426
      6 C         140.6433  142.7553  168.1509 C.ar    1  UNL1        0.0091
      7 C         140.4772  142.0880  169.4840 C.ar    1  UNL1        0.0120
      8 C         139.9569  140.6832  169.5599 C.ar    1  UNL1        0.0577
      9 CL        139.7908  140.0160  170.8930 Cl      1  UNL1       -0.0822
     10 C         139.6029  139.9456  168.3027 C.ar    1  UNL1        0.0120
     11 C         139.7690  140.6129  166.9696 C.ar    1  UNL1        0.0091
     12 C         141.1200  145.3539  160.2281 C.3     1  UNL1        0.1508
     13 N         141.8811  144.6652  159.1344 N.3     1  UNL1       -0.2617
     14 C         142.1765  145.3901  157.8548 C.3     1  UNL1        0.0730
     15 C         141.0518  145.9298  157.0218 C.3     1  UNL1        0.0188
     16 C         142.3469  143.2514  159.3201 C.3     1  UNL1        0.0730
     17 C         143.8087  142.9592  159.4868 C.3     1  UNL1        0.0174
     18 C         144.4254  143.4050  161.9709 C.3     1  UNL1        0.0000
     19 C         144.3296  142.4669  160.8045 C.3     1  UNL1        0.0014
@<TRIPOS>BOND
     1    18    19    1
     2    19    17    1
     3    17    16    1
     4    16    13    1
     5    13    14    1
     6    14    15    1
     7    13    12    1
     8    12     1    1
     9     1     2    3
    10     2     3    1
    11     3     4    3
    12     4     5    1
    13     5     6   ar
    14     6     7   ar
    15     7     8   ar
    16     8     9    1
    17     8    10   ar
    18    10    11   ar
    19    11     5   ar
@<TRIPOS>MOLECULE
*****
 19 19 0 0 0
SMALL
GASTEIGER

@<TRIPOS>ATOM
      1 C         142.5832  137.5668  156.7566 C.1     1  UNL1       -0.0599
      2 C         142.6586  137.7508  158.2434 C.1     1  UNL1       -0.0124
      3 C         142.7340  137.9347  159.7302 C.1     1  UNL1       -0.0095
      4 C         142.8094  138.1187  161.2169 C.1     1  UNL1       -0.0512
      5 C         142.8848  138.3026  162.7037 C.ar    1  UNL1        0.0426
      6 C         144.0591  139.0091  163.3134 C.ar    1  UNL1        0.0091
      7 C         144.1345  139.1931  164.8002 C.ar    1  UNL1        0.0120
      8 C         143.0356  138.6706  165.6772 C.ar    1  UNL1        0.0577
      9 CL        143.1110  138.8545  167.1640 Cl      1  UNL1       -0.0822
     10 C         141.8612  137.9641  165.0675 C.ar    1  UNL1        0.0120
     11 C         141.7859  137.7802  163.5808 C.ar    1  UNL1        0.0091
     12 C         142.5078  137.3828  155.2699 C.3     1  UNL1        0.1508
     13 N         141.7800  136.2035  154.6960 N.3     1  UNL1       -0.2617
     14 C         140.3745  136.3603  154.1960 C.3     1  UNL1        0.0730
     15 C         139.3188  136.9348  155.0936 C.3     1  UNL1        0.0188
     16 C         142.4577  134.8673  154.6222 C.3     1  UNL1        0.0730
     17 C         141.9236  133.7107  155.4139 C.3     1  UNL1        0.0174
     18 C         143.5401  134.0746  157.4151 C.3     1  UNL1        0.0000
     19 C         142.7161  133.1573  156.5610 C.3     1  UNL1        0.0014
@<TRIPOS>BOND
     1    18    19    1
     2    19    17    1
     3    17    16    1
     4    16    13    1
     5    13    14    1
     6    14    15    1
     7    13    12    1
     8    12     1    1
     9     1     2    3
    10     2     3    1
    11     3     4    3
    12     4     5    1
    13     5     6   ar
    14     6     7   ar
    15     7     8   ar
    16     8     9    1
    17     8    10   ar
    18    10    11   ar
    19    11     5   ar
@<TRIPOS>MOLECULE
*****
 19 19 0 0 0
SMALL
GASTEIGER

@<TRIPOS>ATOM
      1 C         140.2629  146.4552  156.3958 C.1     1  UNL1       -0.0599
      2 C         140.2616  145.9856  157.8204 C.1     1  UNL1       -0.0124
      3 C         140.2603  145.5161  159.2450 C.1     1  UNL1       -0.0095
      4 C         140.2589  145.0465  160.6696 C.1     1  UNL1       -0.0512
      5 C         140.2576  144.5770  162.0943 C.ar    1  UNL1        0.0426
      6 C         139.2255  145.0924  163.0529 C.ar    1  UNL1        0.0091
      7 C         139.2242  144.6229  164.4775 C.ar    1  UNL1        0.0120
      8 C         140.2550  143.6379  164.9435 C.ar    1  UNL1        0.0577
      9 CL        140.2537  143.1683  166.3681 Cl      1  UNL1       -0.0822
     10 C         141.2871  143.1224  163.9849 C.ar    1  UNL1        0.0120
     11 C         141.2884  143.5920  162.5602 C.ar    1  UNL1        0.0091
     12 C         140.2642  146.9247  154.9712 C.3     1  UNL1        0.1508
     13 N         139.7895  148.3077  154.6369 N.3     1  UNL1       -0.2617
     14 C         140.5432  149.1394  153.6418 C.3     1  UNL1        0.0730
     15 C         139.9152  149.4845  152.3240 C.3     1  UNL1        0.0188
     16 C         138.5609  148.8592  155.2977 C.3     1  UNL1        0.0730
     17 C         138.6914  149.7772  156.4767 C.3     1  UNL1        0.0174
     18 C         138.4511  151.9043  155.0043 C.3     1  UNL1        0.0000
     19 C         138.9280  151.2430  156.2634 C.3     1  UNL1        0.0014
@<TRIPOS>BOND
     1    18    19    1
     2    19    17    1
     3    17    16    1
     4    16    13    1
     5    13    14    1
     6    14    15    1
     7    13    12    1
     8    12     1    1
     9     1     2    3
    10     2     3    1
    11     3     4    3
    12     4     5    1
    13     5     6   ar
    14     6     7   ar
    15     7     8   ar
    16     8     9    1
    17     8    10   ar
    18    10    11   ar
    19    11     5   ar
@<TRIPOS>MOLECULE
*****
 19 19 0 0 0
SMALL
GASTEIGER

@<TRIPOS>ATOM
      1 C         143.1784  141.5774  160.2498 C.1     1  UNL1       -0.0599
      2 C         142.9702  140.3347  159.4360 C.1     1  UNL1       -0.0124
      3 C         142.7619  139.0919  158.6222 C.1     1  UNL1       -0.0095
      4 C         142.5536  137.8492  157.8084 C.1     1  UNL1       -0.0512
      5 C         142.3453  136.6065  156.9946 C.ar    1  UNL1        0.0426
      6 C         141.2263  136.5415  155.9978 C.ar    1  UNL1        0.0091
      7 C         141.0181  135.2987  155.1841 C.ar    1  UNL1        0.0120
      8 C         141.9288  134.1210  155.3670 C.ar    1  UNL1        0.0577
      9 CL        141.7205  132.8783  154.5533 Cl      1  UNL1       -0.0822
     10 C         143.0478  134.1860  156.3638 C.ar    1  UNL1        0.0120
     11 C         143.2560  135.4287  157.1776 C.ar    1  UNL1        0.0091
     12 C         143.3867  142.8201  161.0636 C.3     1  UNL1        0.1508
     13 N         144.1028  142.7437  162.3793 N.3     1  UNL1       -0.2617
     14 C         143.6168  143.5520  163.5458 C.3     1  UNL1        0.0730
     15 C         143.7091  145.0488  163.5115 C.3     1  UNL1        0.0188
     16 C         145.3050  141.8591  162.5288 C.3     1  UNL1        0.0730
     17 C         145.5505  141.1393  163.8217 C.3     1  UNL1        0.0174
     18 C         144.1335  139.1305  162.9808 C.3     1  UNL1        0.0000
     19 C         144.9053  139.8087  164.0736 C.3     1  UNL1        0.0014
@<TRIPOS>BOND
     1    18    19    1
     2    19    17    1
     3    17    16    1
     4    16    13    1
     5    13    14    1
     6    14    15    1
     7    13    12    1
     8    12     1    1
     9     1     2    3
    10     2     3    1
    11     3     4    3
    12     4     5    1
    13     5     6   ar
    14     6     7   ar
    15     7     8   ar
    16     8     9    1
    17     8    10   ar
    18    10    11   ar
    19    11     5   ar
@<TRIPOS>MOLECULE
*****
 19 19 0 0 0
SMALL
GASTEIGER

@<TRIPOS>ATOM
      1 C         138.8215  141.9303  160.9376 C.1     1  UNL1       -0.0599
      2 C         139.1111  141.8414  162.4067 C.1     1  UNL1       -0.0124
      3 C         139.4006  141.7524  163.8758 C.1     1  UNL1       -0.0095
      4 C         139.6901  141.6635  165.3449 C.1     1  UNL1       -0.0512
      5 C         139.9796  141.5745  166.8140 C.ar    1  UNL1        0.0426
      6 C         139.6919  140.3052  167.5596 C.ar    1  UNL1        0.0091
      7 C         139.9814  140.2162  169.0287 C.ar    1  UNL1        0.0120
      8 C         140.5586  141.3966  169.7522 C.ar    1  UNL1        0.0577
      9 CL        140.8482  141.3076  171.2213 Cl      1  UNL1       -0.0822
     10 C         140.8464  142.6659  169.0066 C.ar    1  UNL1        0.0120
     11 C         140.5569  142.7548  167.5375 C.ar    1  UNL1        0.0091
     12 C         138.5320  142.0193  159.4685 C.3     1  UNL1        0.1508
     13 N         139.2678  143.0118  158.6178 N.3     1  UNL1       -0.2617
     14 C         138.7975  143.2980  157.2225 C.3     1  UNL1        0.0730
     15 C         137.4846  142.7504  156.7464 C.3     1  UNL1        0.0188
     16 C         140.4738  143.7181  159.1624 C.3     1  UNL1        0.0730
     17 C         140.3363  145.0896  159.7539 C.3     1  UNL1        0.0174
     18 C         139.5475  145.7347  162.1439 C.3     1  UNL1        0.0000
     19 C         140.6397  145.3143  161.2057 C.3     1  UNL1        0.0014
@<TRIPOS>BOND
     1    18    19    1
     2    19    17    1
     3    17    16    1
     4    16    13    1
     5    13    14    1
     6    14    15    1
     7    13    12    1
     8    12     1    1
     9     1     2    3
    10     2     3    1
    11     3     4    3
    12     4     5    1
    13     5     6   ar
    14     6     7   ar
    15     7     8   ar
    16     8     9    1
    17     8    10   ar
    18    10    11   ar
    19    11     5   ar
@<TRIPOS>MOLECULE
*****
 19 19 0 0 0
SMALL
GASTEIGER

@<TRIPOS>ATOM
      1 C         141.1229  144.5248  161.3772 C.1     1  UNL1       -0.0599
      2 C         140.9068  143.8918  162.7198 C.1     1  UNL1       -0.0124
      3 C         140.6908  143.2587  164.0624 C.1     1  UNL1       -0.0095
      4 C         140.4747  142.6256  165.4050 C.1     1  UNL1       -0.0512
      5 C         140.2586  141.9925  166.7476 C.ar    1  UNL1        0.0426
      6 C         139.7362  140.5896  166.8399 C.ar    1  UNL1        0.0091
      7 C         139.5201  139.9565  168.1825 C.ar    1  UNL1        0.0120
      8 C         139.8265  140.7264  169.4327 C.ar    1  UNL1        0.0577
      9 CL        139.6104  140.0933  170.7753 Cl      1  UNL1       -0.0822
     10 C         140.3490  142.1294  169.3404 C.ar    1  UNL1        0.0120
     11 C         140.5650  142.7625  167.9979 C.ar    1  UNL1        0.0091
     12 C         141.3390  145.1579  160.0346 C.3     1  UNL1        0.1508
     13 N         140.5592  144.6799  158.8458 N.3     1  UNL1       -0.2617
     14 C         140.1344  145.6534  157.7867 C.3     1  UNL1        0.0730
     15 C         141.1089  146.0867  156.7319 C.3     1  UNL1        0.0188
     16 C         140.2042  143.2282  158.7160 C.3     1  UNL1        0.0730
     17 C         138.8045  142.7701  159.0005 C.3     1  UNL1        0.0174
     18 C         139.1415  141.0879  160.9515 C.3     1  UNL1        0.0000
     19 C         138.4397  142.2792  160.3702 C.3     1  UNL1        0.0014
@<TRIPOS>BOND
     1    18    19    1
     2    19    17    1
     3    17    16    1
     4    16    13    1
     5    13    14    1
     6    14    15    1
     7    13    12    1
     8    12     1    1
     9     1     2    3
    10     2     3    1
    11     3     4    3
    12     4     5    1
    13     5     6   ar
    14     6     7   ar
    15     7     8   ar
    16     8     9    1
    17     8    10   ar
    18    10    11   ar
    19    11     5   ar
@<TRIPOS>MOLECULE
*****
 19 19 0 0 0
SMALL
GASTEIGER

@<TRIPOS>ATOM
      1 C         142.7352  137.9202  161.4282 C.1     1  UNL1       -0.0599
      2 C         142.4512  138.3178  162.8464 C.1     1  UNL1       -0.0124
      3 C         142.1672  138.7154  164.2646 C.1     1  UNL1       -0.0095
      4 C         141.8832  139.1130  165.6828 C.1     1  UNL1       -0.0512
      5 C         141.5992  139.5105  167.1009 C.ar    1  UNL1        0.0426
      6 C         142.6703  139.3860  168.1436 C.ar    1  UNL1        0.0091
      7 C         142.3863  139.7836  169.5618 C.ar    1  UNL1        0.0120
      8 C         141.0312  140.3057  169.9373 C.ar    1  UNL1        0.0577
      9 CL        140.7472  140.7033  171.3555 Cl      1  UNL1       -0.0822
     10 C         139.9601  140.4302  168.8947 C.ar    1  UNL1        0.0120
     11 C         140.2441  140.0327  167.4765 C.ar    1  UNL1        0.0091
     12 C         143.0192  137.5226  160.0100 C.3     1  UNL1        0.1508
     13 N         142.6903  138.4617  158.8876 N.3     1  UNL1       -0.2617
     14 C         142.4934  137.9306  157.4986 C.3     1  UNL1        0.0730
     15 C         142.7700  136.4865  157.2016 C.3     1  UNL1        0.0188
     16 C         142.5583  139.9320  159.1541 C.3     1  UNL1        0.0730
     17 C         143.7862  140.7812  159.2987 C.3     1  UNL1        0.0174
     18 C         142.8769  141.7510  161.5309 C.3     1  UNL1        0.0000
     19 C         143.9942  141.5933  160.5426 C.3     1  UNL1        0.0014
@<TRIPOS>BOND
     1    18    19    1
     2    19    17    1
     3    17    16    1
     4    16    13    1
     5    13    14    1
     6    14    15    1
     7    13    12    1
     8    12     1    1
     9     1     2    3
    10     2     3    1
    11     3     4    3
    12     4     5    1
    13     5     6   ar
    14     6     7   ar
    15     7     8   ar
    16     8     9    1
    17     8    10   ar
    18    10    11   ar
    19    11     5   ar
