@<TRIPOS>MOLECULE
*****
 28 31 0 0 0
SMALL
GASTEIGER

@<TRIPOS>ATOM
      1 C         139.0243  138.7590  165.4227 C.2     1  UNL1        0.1571
      2 N         138.8228  137.3269  165.0249 N.2     1  UNL1       -0.1436
      3 N         138.7688  137.2651  163.5272 N.2     1  UNL1       -0.1519
      4 C         138.9368  138.6591  162.9993 C.2     1  UNL1        0.0865
      5 C         138.9665  139.2069  161.6033 C.3     1  UNL1        0.0736
      6 C         139.1540  140.6781  161.3788 C.2     1  UNL1       -0.0196
      7 C         139.3120  141.6014  162.5503 C.2     1  UNL1       -0.0016
      8 C         139.2823  141.0536  163.9464 C.2     1  UNL1        0.0027
      9 C         139.0948  139.5824  164.1709 C.2     1  UNL1        0.0395
     10 C         139.4995  143.0726  162.3258 C.ar    1  UNL1        0.0294
     11 C         138.7613  144.0616  163.1784 C.ar    1  UNL1        0.0024
     12 C         138.9489  145.5328  162.9539 C.ar    1  UNL1        0.0025
     13 C         139.8747  146.0150  161.8767 C.ar    1  UNL1        0.0320
     14 C         140.6129  145.0260  161.0240 C.ar    1  UNL1        0.1674
     15 F         141.5387  145.5082  159.9468 F       1  UNL1       -0.2018
     16 C         140.4253  143.5548  161.2486 C.ar    1  UNL1        0.1673
     17 F         141.1636  142.5658  160.3960 F       1  UNL1       -0.2018
     18 O         138.0535  138.9834  167.8221 O.2     1  UNL1       -0.2684
     19 C         139.1358  139.2770  166.8261 C.2     1  UNL1        0.2654
     20 N         140.3298  140.0887  167.2333 N.am    1  UNL1       -0.2994
     21 H         141.0402  140.2814  166.5796 H       1  UNL1        0.1498
     22 C         140.4412  140.6066  168.6367 C.3     1  UNL1        0.0972
     23 C         140.9197  139.8302  169.8276 C.3     1  UNL1        0.0467
     24 C         140.8680  140.7356  171.0224 C.3     1  UNL1        0.1526
     25 S         140.3576  142.0715  170.5699 S.O2    1  UNL1       -0.0083
     26 O         140.5218  142.4470  172.0128 O.2     1  UNL1       -0.1729
     27 O         139.8815  143.4859  170.4191 O.2     1  UNL1       -0.1729
     28 C         140.0938  141.9918  169.0954 C.3     1  UNL1        0.1703
@<TRIPOS>BOND
     1    18    19    2
     2    19    20   am
     3    20    22    1
     4    22    23    1
     5    23    24    1
     6    24    25    1
     7    25    26    2
     8    25    27    2
     9    25    28    1
    10    19     1    1
    11     1     2    2
    12     2     3    1
    13     3     4    2
    14     4     5    1
    15     5     6    1
    16     6     7    2
    17     7    10    1
    18    10    11   ar
    19    11    12   ar
    20    12    13   ar
    21    13    14   ar
    22    14    15    1
    23    14    16   ar
    24    16    17    1
    25     7     8    1
    26     8     9    2
    27    28    22    1
    28     9     1    1
    29     9     4    1
    30    16    10   ar
    31    20    21    1
@<TRIPOS>MOLECULE
*****
 28 31 0 0 0
SMALL
GASTEIGER

@<TRIPOS>ATOM
      1 C         142.0809  140.4126  163.2925 C.2     1  UNL1        0.1571
      2 N         142.7140  139.3893  162.3970 N.2     1  UNL1       -0.1436
      3 N         143.3886  138.3683  163.2644 N.2     1  UNL1       -0.1519
      4 C         143.1724  138.7606  164.6960 C.2     1  UNL1        0.0865
      5 C         143.6071  138.1306  165.9860 C.3     1  UNL1        0.0736
      6 C         143.2335  138.7640  167.2933 C.2     1  UNL1       -0.0196
      7 C         142.4253  140.0275  167.3106 C.2     1  UNL1       -0.0016
      8 C         141.9906  140.6576  166.0207 C.2     1  UNL1        0.0027
      9 C         142.3642  140.0241  164.7134 C.2     1  UNL1        0.0395
     10 C         142.0517  140.6610  168.6181 C.ar    1  UNL1        0.0294
     11 C         141.0070  140.0265  169.4874 C.ar    1  UNL1        0.0024
     12 C         140.6334  140.6600  170.7949 C.ar    1  UNL1        0.0025
     13 C         141.3047  141.9279  171.2328 C.ar    1  UNL1        0.0320
     14 C         142.3495  142.5624  170.3633 C.ar    1  UNL1        0.1674
     15 F         143.0208  143.8303  170.8013 F       1  UNL1       -0.2018
     16 C         142.7230  141.9289  169.0560 C.ar    1  UNL1        0.1673
     17 F         143.7678  142.5634  168.1865 F       1  UNL1       -0.2018
     18 O         139.8301  141.4960  162.5783 O.2     1  UNL1       -0.2684
     19 C         141.3013  141.6137  162.8457 C.2     1  UNL1        0.2654
     20 N         141.9930  142.9326  162.6661 N.am    1  UNL1       -0.2994
     21 H         142.9587  143.0099  162.8416 H       1  UNL1        0.1498
     22 C         141.2134  144.1337  162.2193 C.3     1  UNL1        0.0972
     23 C         140.7265  145.2463  163.0997 C.3     1  UNL1        0.0467
     24 C         139.9961  146.2333  162.2381 C.3     1  UNL1        0.1526
     25 S         140.0315  145.7306  160.8253 S.O2    1  UNL1       -0.0083
     26 O         139.2525  146.9776  160.5286 O.2     1  UNL1       -0.1729
     27 O         139.9041  145.4887  159.3504 O.2     1  UNL1       -0.1729
     28 C         140.7839  144.4330  160.8136 C.3     1  UNL1        0.1703
@<TRIPOS>BOND
     1    18    19    2
     2    19    20   am
     3    20    22    1
     4    22    23    1
     5    23    24    1
     6    24    25    1
     7    25    26    2
     8    25    27    2
     9    25    28    1
    10    19     1    1
    11     1     2    2
    12     2     3    1
    13     3     4    2
    14     4     5    1
    15     5     6    1
    16     6     7    2
    17     7    10    1
    18    10    11   ar
    19    11    12   ar
    20    12    13   ar
    21    13    14   ar
    22    14    15    1
    23    14    16   ar
    24    16    17    1
    25     7     8    1
    26     8     9    2
    27    28    22    1
    28     9     1    1
    29     9     4    1
    30    16    10   ar
    31    20    21    1
@<TRIPOS>MOLECULE
*****
 28 31 0 0 0
SMALL
GASTEIGER

@<TRIPOS>ATOM
      1 C         143.2300  140.9244  163.2686 C.2     1  UNL1        0.1571
      2 N         144.0312  139.8835  162.5442 N.2     1  UNL1       -0.1436
      3 N         144.3348  138.7770  163.5104 N.2     1  UNL1       -0.1519
      4 C         143.7213  139.1339  164.8318 C.2     1  UNL1        0.0865
      5 C         143.6962  138.4220  166.1518 C.3     1  UNL1        0.0736
      6 C         142.9883  139.0372  167.3224 C.2     1  UNL1       -0.0196
      7 C         142.3055  140.3644  167.1730 C.2     1  UNL1       -0.0016
      8 C         142.3306  141.0763  165.8530 C.2     1  UNL1        0.0027
      9 C         143.0385  140.4611  164.6824 C.2     1  UNL1        0.0395
     10 C         141.5975  140.9796  168.3436 C.ar    1  UNL1        0.0294
     11 C         142.2726  142.0481  169.1514 C.ar    1  UNL1        0.0024
     12 C         141.5647  142.6633  170.3221 C.ar    1  UNL1        0.0025
     13 C         140.1816  142.2099  170.6849 C.ar    1  UNL1        0.0320
     14 C         139.5065  141.1414  169.8771 C.ar    1  UNL1        0.1674
     15 F         138.1235  140.6881  170.2399 F       1  UNL1       -0.2018
     16 C         140.2145  140.5263  168.7065 C.ar    1  UNL1        0.1673
     17 F         139.5394  139.4577  167.8986 F       1  UNL1       -0.2018
     18 O         143.6168  143.0744  161.8623 O.2     1  UNL1       -0.2684
     19 C         142.7114  142.2039  162.6822 C.2     1  UNL1        0.2654
     20 N         141.2872  142.6129  162.9157 N.am    1  UNL1       -0.2994
     21 H         140.6929  142.0416  163.4539 H       1  UNL1        0.1498
     22 C         140.7686  143.8924  162.3293 C.3     1  UNL1        0.0972
     23 C         140.4825  145.1563  163.0848 C.3     1  UNL1        0.0467
     24 C         139.9821  146.1777  162.1069 C.3     1  UNL1        0.1526
     25 S         139.9589  145.5451  160.7470 S.O2    1  UNL1       -0.0083
     26 O         139.4455  146.8837  160.3060 O.2     1  UNL1       -0.1729
     27 O         139.8284  145.1923  159.2950 O.2     1  UNL1       -0.1729
     28 C         140.4450  144.1327  160.8845 C.3     1  UNL1        0.1703
@<TRIPOS>BOND
     1    18    19    2
     2    19    20   am
     3    20    22    1
     4    22    23    1
     5    23    24    1
     6    24    25    1
     7    25    26    2
     8    25    27    2
     9    25    28    1
    10    19     1    1
    11     1     2    2
    12     2     3    1
    13     3     4    2
    14     4     5    1
    15     5     6    1
    16     6     7    2
    17     7    10    1
    18    10    11   ar
    19    11    12   ar
    20    12    13   ar
    21    13    14   ar
    22    14    15    1
    23    14    16   ar
    24    16    17    1
    25     7     8    1
    26     8     9    2
    27    28    22    1
    28     9     1    1
    29     9     4    1
    30    16    10   ar
    31    20    21    1
@<TRIPOS>MOLECULE
*****
 28 31 0 0 0
SMALL
GASTEIGER

@<TRIPOS>ATOM
      1 C         141.5393  139.4748  169.7577 C.2     1  UNL1        0.1571
      2 N         140.1393  139.4668  170.2961 N.2     1  UNL1       -0.1436
      3 N         139.2428  140.0864  169.2654 N.2     1  UNL1       -0.1519
      4 C         140.0888  140.4773  168.0900 C.2     1  UNL1        0.0865
      5 C         139.7500  141.1286  166.7820 C.3     1  UNL1        0.0736
      6 C         140.8306  141.4019  165.7782 C.2     1  UNL1       -0.0196
      7 C         142.2500  141.0239  166.0825 C.2     1  UNL1       -0.0016
      8 C         142.5887  140.3726  167.3905 C.2     1  UNL1        0.0027
      9 C         141.5081  140.0993  168.3943 C.2     1  UNL1        0.0395
     10 C         143.3306  141.2972  165.0787 C.ar    1  UNL1        0.0294
     11 C         144.2851  140.2078  164.6889 C.ar    1  UNL1        0.0024
     12 C         145.3657  140.4811  163.6850 C.ar    1  UNL1        0.0025
     13 C         145.4918  141.8439  163.0710 C.ar    1  UNL1        0.0320
     14 C         144.5371  142.9334  163.4609 C.ar    1  UNL1        0.1674
     15 F         144.6631  144.2961  162.8469 F       1  UNL1       -0.2018
     16 C         143.4566  142.6600  164.4647 C.ar    1  UNL1        0.1673
     17 F         142.5020  143.7494  164.8545 F       1  UNL1       -0.2018
     18 O         143.7642  139.9049  171.0284 O.2     1  UNL1       -0.2684
     19 C         142.7568  138.9503  170.4596 C.2     1  UNL1        0.2654
     20 N         142.9670  137.4709  170.5925 N.am    1  UNL1       -0.2994
     21 H         142.3058  136.8443  170.2192 H       1  UNL1        0.1498
     22 C         144.1845  136.9465  171.2944 C.3     1  UNL1        0.0972
     23 C         145.4154  137.7343  171.6320 C.3     1  UNL1        0.0467
     24 C         146.3766  136.8169  172.3281 C.3     1  UNL1        0.1526
     25 S         145.7396  135.4620  172.4206 S.O2    1  UNL1       -0.0083
     26 O         147.0170  135.0820  173.1089 O.2     1  UNL1       -0.1729
     27 O         145.3697  134.0277  172.6570 O.2     1  UNL1       -0.1729
     28 C         144.3848  135.5421  171.7817 C.3     1  UNL1        0.1703
@<TRIPOS>BOND
     1    18    19    2
     2    19    20   am
     3    20    22    1
     4    22    23    1
     5    23    24    1
     6    24    25    1
     7    25    26    2
     8    25    27    2
     9    25    28    1
    10    19     1    1
    11     1     2    2
    12     2     3    1
    13     3     4    2
    14     4     5    1
    15     5     6    1
    16     6     7    2
    17     7    10    1
    18    10    11   ar
    19    11    12   ar
    20    12    13   ar
    21    13    14   ar
    22    14    15    1
    23    14    16   ar
    24    16    17    1
    25     7     8    1
    26     8     9    2
    27    28    22    1
    28     9     1    1
    29     9     4    1
    30    16    10   ar
    31    20    21    1
@<TRIPOS>MOLECULE
*****
 28 31 0 0 0
SMALL
GASTEIGER

@<TRIPOS>ATOM
      1 C         142.9949  143.9690  162.3966 C.2     1  UNL1        0.1571
      2 N         143.9765  144.9809  162.9090 N.2     1  UNL1       -0.1436
      3 N         144.2510  144.6716  164.3508 N.2     1  UNL1       -0.1519
      4 C         143.4390  143.4685  164.7296 C.2     1  UNL1        0.0865
      5 C         143.3063  142.7124  166.0182 C.3     1  UNL1        0.0736
      6 C         142.3972  141.5220  166.0990 C.2     1  UNL1       -0.0196
      7 C         141.6209  141.0878  164.8912 C.2     1  UNL1       -0.0016
      8 C         141.7537  141.8439  163.6026 C.2     1  UNL1        0.0027
      9 C         142.6627  143.0343  163.5218 C.2     1  UNL1        0.0395
     10 C         140.7118  139.8973  164.9721 C.ar    1  UNL1        0.0294
     11 C         141.0205  138.6626  164.1783 C.ar    1  UNL1        0.0024
     12 C         140.1114  137.4722  164.2591 C.ar    1  UNL1        0.0025
     13 C         138.8937  137.5166  165.1338 C.ar    1  UNL1        0.0320
     14 C         138.5850  138.7513  165.9277 C.ar    1  UNL1        0.1674
     15 F         137.3672  138.7957  166.8024 F       1  UNL1       -0.2018
     16 C         139.4941  139.9417  165.8468 C.ar    1  UNL1        0.1673
     17 F         139.1854  141.1765  166.6406 F       1  UNL1       -0.2018
     18 O         142.5259  142.6251  160.2231 O.2     1  UNL1       -0.2684
     19 C         142.4425  143.9033  161.0036 C.2     1  UNL1        0.2654
     20 N         141.8065  145.1159  160.3910 N.am    1  UNL1       -0.2994
     21 H         141.7517  145.9549  160.9032 H       1  UNL1        0.1498
     22 C         141.2540  145.0502  158.9980 C.3     1  UNL1        0.0972
     23 C         141.7791  145.7932  157.8053 C.3     1  UNL1        0.0467
     24 C         140.9291  145.4322  156.6233 C.3     1  UNL1        0.1526
     25 S         139.8788  144.4661  157.0854 S.O2    1  UNL1       -0.0083
     26 O         139.4392  144.5017  155.6517 O.2     1  UNL1       -0.1729
     27 O         138.7366  143.5075  157.2478 O.2     1  UNL1       -0.1729
     28 C         140.0796  144.2300  158.5530 C.3     1  UNL1        0.1703
@<TRIPOS>BOND
     1    18    19    2
     2    19    20   am
     3    20    22    1
     4    22    23    1
     5    23    24    1
     6    24    25    1
     7    25    26    2
     8    25    27    2
     9    25    28    1
    10    19     1    1
    11     1     2    2
    12     2     3    1
    13     3     4    2
    14     4     5    1
    15     5     6    1
    16     6     7    2
    17     7    10    1
    18    10    11   ar
    19    11    12   ar
    20    12    13   ar
    21    13    14   ar
    22    14    15    1
    23    14    16   ar
    24    16    17    1
    25     7     8    1
    26     8     9    2
    27    28    22    1
    28     9     1    1
    29     9     4    1
    30    16    10   ar
    31    20    21    1
@<TRIPOS>MOLECULE
*****
 28 31 0 0 0
SMALL
GASTEIGER

@<TRIPOS>ATOM
      1 C         140.5255  138.9680  163.4153 C.2     1  UNL1        0.1571
      2 N         139.5312  137.9474  162.9464 N.2     1  UNL1       -0.1436
      3 N         138.5786  137.6767  164.0730 N.2     1  UNL1       -0.1519
      4 C         138.9841  138.5300  165.2382 C.2     1  UNL1        0.0865
      5 C         138.4131  138.6834  166.6167 C.3     1  UNL1        0.0736
      6 C         139.0454  139.6349  167.5887 C.2     1  UNL1       -0.0196
      7 C         140.2487  140.4329  167.1822 C.2     1  UNL1       -0.0016
      8 C         140.8196  140.2796  165.8037 C.2     1  UNL1        0.0027
      9 C         140.1873  139.3281  164.8316 C.2     1  UNL1        0.0395
     10 C         140.8810  141.3844  168.1543 C.ar    1  UNL1        0.0294
     11 C         140.1122  142.5746  168.6467 C.ar    1  UNL1        0.0024
     12 C         140.7445  143.5261  169.6188 C.ar    1  UNL1        0.0025
     13 C         142.1456  143.2873  170.0985 C.ar    1  UNL1        0.0320
     14 C         142.9143  142.0971  169.6061 C.ar    1  UNL1        0.1674
     15 F         144.3153  141.8583  170.0858 F       1  UNL1       -0.2018
     16 C         142.2820  141.1457  168.6340 C.ar    1  UNL1        0.1673
     17 F         143.0507  139.9554  168.1416 F       1  UNL1       -0.2018
     18 O         142.9187  138.7357  162.4314 O.2     1  UNL1       -0.2684
     19 C         141.6589  139.5300  162.6093 C.2     1  UNL1        0.2654
     20 N         141.5324  140.8863  161.9812 N.am    1  UNL1       -0.2994
     21 H         140.7055  141.4077  162.0980 H       1  UNL1        0.1498
     22 C         142.6658  141.4482  161.1752 C.3     1  UNL1        0.0972
     23 C         143.8515  142.1893  161.7185 C.3     1  UNL1        0.0467
     24 C         144.7311  142.5668  160.5635 C.3     1  UNL1        0.1526
     25 S         144.0890  142.0591  159.3066 S.O2    1  UNL1       -0.0083
     26 O         145.2833  142.6710  158.6364 O.2     1  UNL1       -0.1729
     27 O         143.6966  141.6793  157.9095 O.2     1  UNL1       -0.1729
     28 C         142.8126  141.3678  159.6846 C.3     1  UNL1        0.1703
@<TRIPOS>BOND
     1    18    19    2
     2    19    20   am
     3    20    22    1
     4    22    23    1
     5    23    24    1
     6    24    25    1
     7    25    26    2
     8    25    27    2
     9    25    28    1
    10    19     1    1
    11     1     2    2
    12     2     3    1
    13     3     4    2
    14     4     5    1
    15     5     6    1
    16     6     7    2
    17     7    10    1
    18    10    11   ar
    19    11    12   ar
    20    12    13   ar
    21    13    14   ar
    22    14    15    1
    23    14    16   ar
    24    16    17    1
    25     7     8    1
    26     8     9    2
    27    28    22    1
    28     9     1    1
    29     9     4    1
    30    16    10   ar
    31    20    21    1
@<TRIPOS>MOLECULE
*****
 28 31 0 0 0
SMALL
GASTEIGER

@<TRIPOS>ATOM
      1 C         139.6320  140.8829  163.1178 C.2     1  UNL1        0.1571
      2 N         138.7761  139.7876  162.5543 N.2     1  UNL1       -0.1436
      3 N         138.3001  138.9379  163.6952 N.2     1  UNL1       -0.1519
      4 C         138.8619  139.5082  164.9638 C.2     1  UNL1        0.0865
      5 C         138.7303  139.0881  166.3977 C.3     1  UNL1        0.0736
      6 C         139.4218  139.8701  167.4747 C.2     1  UNL1       -0.0196
      7 C         140.2450  141.0722  167.1179 C.2     1  UNL1       -0.0016
      8 C         140.3767  141.4923  165.6840 C.2     1  UNL1        0.0027
      9 C         139.6851  140.7103  164.6069 C.2     1  UNL1        0.0395
     10 C         140.9366  141.8543  168.1951 C.ar    1  UNL1        0.0294
     11 C         140.2221  142.9814  168.8799 C.ar    1  UNL1        0.0024
     12 C         140.9136  143.7635  169.9571 C.ar    1  UNL1        0.0025
     13 C         142.3197  143.4183  170.3494 C.ar    1  UNL1        0.0320
     14 C         143.0342  142.2911  169.6645 C.ar    1  UNL1        0.1674
     15 F         144.4402  141.9459  170.0568 F       1  UNL1       -0.2018
     16 C         142.3426  141.5091  168.5874 C.ar    1  UNL1        0.1673
     17 F         143.0571  140.3819  167.9025 F       1  UNL1       -0.2018
     18 O         141.5356  142.6354  162.8835 O.2     1  UNL1       -0.2684
     19 C         140.3150  141.9616  162.3305 C.2     1  UNL1        0.2654
     20 N         139.7773  142.3666  160.9899 N.am    1  UNL1       -0.2994
     21 H         138.9762  141.9243  160.6268 H       1  UNL1        0.1498
     22 C         140.4603  143.4453  160.2025 C.3     1  UNL1        0.0972
     23 C         140.1712  144.9148  160.2854 C.3     1  UNL1        0.0467
     24 C         141.0846  145.6216  159.3282 C.3     1  UNL1        0.1526
     25 S         141.9381  144.5888  158.6537 S.O2    1  UNL1       -0.0083
     26 O         142.5281  145.7696  157.9412 O.2     1  UNL1       -0.1729
     27 O         142.9150  143.8030  157.8303 O.2     1  UNL1       -0.1729
     28 C         141.5523  143.2438  159.1941 C.3     1  UNL1        0.1703
@<TRIPOS>BOND
     1    18    19    2
     2    19    20   am
     3    20    22    1
     4    22    23    1
     5    23    24    1
     6    24    25    1
     7    25    26    2
     8    25    27    2
     9    25    28    1
    10    19     1    1
    11     1     2    2
    12     2     3    1
    13     3     4    2
    14     4     5    1
    15     5     6    1
    16     6     7    2
    17     7    10    1
    18    10    11   ar
    19    11    12   ar
    20    12    13   ar
    21    13    14   ar
    22    14    15    1
    23    14    16   ar
    24    16    17    1
    25     7     8    1
    26     8     9    2
    27    28    22    1
    28     9     1    1
    29     9     4    1
    30    16    10   ar
    31    20    21    1
@<TRIPOS>MOLECULE
*****
 28 31 0 0 0
SMALL
GASTEIGER

@<TRIPOS>ATOM
      1 C         140.7228  144.4026  161.0029 C.2     1  UNL1        0.1571
      2 N         140.2833  145.8233  160.8073 N.2     1  UNL1       -0.1436
      3 N         139.1514  146.0928  161.7539 N.2     1  UNL1       -0.1519
      4 C         138.8913  144.8386  162.5345 C.2     1  UNL1        0.0865
      5 C         137.8955  144.5128  163.6079 C.3     1  UNL1        0.0736
      6 C         137.8710  143.1423  164.2172 C.2     1  UNL1       -0.0196
      7 C         138.8422  142.0977  163.7530 C.2     1  UNL1       -0.0016
      8 C         139.8380  142.4235  162.6796 C.2     1  UNL1        0.0027
      9 C         139.8625  143.7939  162.0703 C.2     1  UNL1        0.0395
     10 C         138.8177  140.7272  164.3623 C.ar    1  UNL1        0.0294
     11 C         138.9249  140.5657  165.8497 C.ar    1  UNL1        0.0024
     12 C         138.9004  139.1952  166.4591 C.ar    1  UNL1        0.0025
     13 C         138.7686  137.9862  165.5809 C.ar    1  UNL1        0.0320
     14 C         138.6613  138.1478  164.0935 C.ar    1  UNL1        0.1674
     15 F         138.5296  136.9389  163.2153 F       1  UNL1       -0.2018
     16 C         138.6859  139.5183  163.4842 C.ar    1  UNL1        0.1673
     17 F         138.5787  139.6798  161.9967 F       1  UNL1       -0.2018
     18 O         143.2381  143.7964  160.7668 O.2     1  UNL1       -0.2684
     19 C         141.8285  143.7117  160.2612 C.2     1  UNL1        0.2654
     20 N         141.5246  142.9359  159.0138 N.am    1  UNL1       -0.2994
     21 H         140.5994  142.8803  158.6819 H       1  UNL1        0.1498
     22 C         142.6303  142.2450  158.2721 C.3     1  UNL1        0.0972
     23 C         143.6985  142.9137  157.4586 C.3     1  UNL1        0.0467
     24 C         144.5904  141.8462  156.8975 C.3     1  UNL1        0.1526
     25 S         144.0733  140.5177  157.3642 S.O2    1  UNL1       -0.0083
     26 O         145.2270  139.9695  156.5778 O.2     1  UNL1       -0.1729
     27 O         143.7975  139.0746  157.6664 O.2     1  UNL1       -0.1729
     28 C         142.8619  140.7642  158.2138 C.3     1  UNL1        0.1703
@<TRIPOS>BOND
     1    18    19    2
     2    19    20   am
     3    20    22    1
     4    22    23    1
     5    23    24    1
     6    24    25    1
     7    25    26    2
     8    25    27    2
     9    25    28    1
    10    19     1    1
    11     1     2    2
    12     2     3    1
    13     3     4    2
    14     4     5    1
    15     5     6    1
    16     6     7    2
    17     7    10    1
    18    10    11   ar
    19    11    12   ar
    20    12    13   ar
    21    13    14   ar
    22    14    15    1
    23    14    16   ar
    24    16    17    1
    25     7     8    1
    26     8     9    2
    27    28    22    1
    28     9     1    1
    29     9     4    1
    30    16    10   ar
    31    20    21    1
@<TRIPOS>MOLECULE
*****
 28 31 0 0 0
SMALL
GASTEIGER

@<TRIPOS>ATOM
      1 C         140.7308  144.3075  161.5811 C.2     1  UNL1        0.1571
      2 N         139.7190  145.3074  161.1053 N.2     1  UNL1       -0.1436
      3 N         138.8045  145.6227  162.2517 N.2     1  UNL1       -0.1519
      4 C         139.2511  144.8176  163.4360 C.2     1  UNL1        0.0865
      5 C         138.7275  144.7197  164.8382 C.3     1  UNL1        0.0736
      6 C         139.3945  143.8090  165.8259 C.2     1  UNL1       -0.0196
      7 C         140.5851  142.9962  165.4114 C.2     1  UNL1       -0.0016
      8 C         141.1087  143.0941  164.0092 C.2     1  UNL1        0.0027
      9 C         140.4417  144.0048  163.0215 C.2     1  UNL1        0.0395
     10 C         141.2521  142.0854  166.3992 C.ar    1  UNL1        0.0294
     11 C         141.4688  142.5409  167.8118 C.ar    1  UNL1        0.0024
     12 C         142.1358  141.6301  168.7996 C.ar    1  UNL1        0.0025
     13 C         142.5861  140.2638  168.3747 C.ar    1  UNL1        0.0320
     14 C         142.3693  139.8083  166.9620 C.ar    1  UNL1        0.1674
     15 F         142.8196  138.4421  166.5371 F       1  UNL1       -0.2018
     16 C         141.7024  140.7191  165.9743 C.ar    1  UNL1        0.1673
     17 F         141.4856  140.2636  164.5616 F       1  UNL1       -0.2018
     18 O         143.2671  143.9373  161.1563 O.2     1  UNL1       -0.2684
     19 C         141.8376  143.7144  160.7605 C.2     1  UNL1        0.2654
     20 N         141.5148  142.8983  159.5439 N.am    1  UNL1       -0.2994
     21 H         140.5765  142.7520  159.2841 H       1  UNL1        0.1498
     22 C         142.6215  142.3052  158.7234 C.3     1  UNL1        0.0972
     23 C         143.6238  143.0701  157.9107 C.3     1  UNL1        0.0467
     24 C         144.5420  142.0807  157.2565 C.3     1  UNL1        0.1526
     25 S         144.1072  140.7044  157.6648 S.O2    1  UNL1       -0.0083
     26 O         145.2533  140.2585  156.8060 O.2     1  UNL1       -0.1729
     27 O         143.9120  139.2349  157.8935 O.2     1  UNL1       -0.1729
     28 C         142.9202  140.8431  158.5713 C.3     1  UNL1        0.1703
@<TRIPOS>BOND
     1    18    19    2
     2    19    20   am
     3    20    22    1
     4    22    23    1
     5    23    24    1
     6    24    25    1
     7    25    26    2
     8    25    27    2
     9    25    28    1
    10    19     1    1
    11     1     2    2
    12     2     3    1
    13     3     4    2
    14     4     5    1
    15     5     6    1
    16     6     7    2
    17     7    10    1
    18    10    11   ar
    19    11    12   ar
    20    12    13   ar
    21    13    14   ar
    22    14    15    1
    23    14    16   ar
    24    16    17    1
    25     7     8    1
    26     8     9    2
    27    28    22    1
    28     9     1    1
    29     9     4    1
    30    16    10   ar
    31    20    21    1
