@<TRIPOS>MOLECULE
*****
 26 28 0 0 0
SMALL
GASTEIGER

@<TRIPOS>ATOM
      1 C         139.1061  140.3678  165.6532 C.ar    1  UNL1       -0.0209
      2 C         139.8811  140.7322  166.8847 C.ar    1  UNL1       -0.0042
      3 C         140.6707  142.0069  166.9242 C.ar    1  UNL1        0.0010
      4 C         140.6854  142.9173  165.7321 C.ar    1  UNL1        0.0187
      5 C         139.9104  142.5529  164.5006 C.ar    1  UNL1        0.1106
      6 C         139.1208  141.2782  164.4612 C.ar    1  UNL1        0.0145
      7 C         141.4457  142.3712  168.1557 C.ar    1  UNL1        0.0000
      8 C         142.8684  141.9207  168.3072 C.ar    1  UNL1        0.0000
      9 C         143.6434  142.2850  169.5387 C.ar    1  UNL1        0.0000
     10 C         142.9957  143.0998  170.6188 C.ar    1  UNL1        0.0000
     11 C         141.5730  143.5504  170.4674 C.ar    1  UNL1        0.0000
     12 C         140.7980  143.1860  169.2358 C.ar    1  UNL1        0.0000
     13 S         139.9251  143.4633  163.3085 S.O2    1  UNL1        0.0346
     14 O         140.0333  142.2737  162.4013 O.2     1  UNL1       -0.1637
     15 O         139.8168  144.6529  164.2158 O.2     1  UNL1       -0.1637
     16 C         139.9397  144.3737  162.1165 C.ar    1  UNL1        0.1599
     17 C         139.3372  145.7457  162.0474 C.ar    1  UNL1        0.1244
     18 N         139.5845  146.2919  160.6725 N.ar    1  UNL1       -0.2384
     19 C         140.3399  145.2575  159.8918 C.ar    1  UNL1        0.1052
     20 S         140.5594  144.0720  160.7843 S.2     1  UNL1       -0.0508
     21 C         140.7958  145.3860  158.4686 C.3     1  UNL1        0.1186
     22 N         142.1962  145.8308  158.1669 N.3     1  UNL1       -0.3157
     23 H         142.3201  146.7956  158.4736 H       1  UNL1        0.1192
     24 H         142.3636  145.7691  157.1626 H       1  UNL1        0.1192
     25 C         137.7541  138.5197  166.8805 C.3     1  UNL1        0.0050
     26 C         138.3165  139.0931  165.6137 C.3     1  UNL1        0.0264
@<TRIPOS>BOND
     1    25    26    1
     2    26     1    1
     3     1     2   ar
     4     2     3   ar
     5     3     7    1
     6     7     8   ar
     7     8     9   ar
     8     9    10   ar
     9    10    11   ar
    10    11    12   ar
    11     3     4   ar
    12     4     5   ar
    13     5    13    1
    14    13    14    2
    15    13    15    2
    16    13    16    1
    17    16    17   ar
    18    17    18   ar
    19    18    19   ar
    20    19    21    1
    21    21    22    1
    22    19    20   ar
    23     5     6   ar
    24     6     1   ar
    25    12     7   ar
    26    20    16   ar
    27    22    23    1
    28    22    24    1
@<TRIPOS>MOLECULE
*****
 26 28 0 0 0
SMALL
GASTEIGER

@<TRIPOS>ATOM
      1 C         138.6410  139.3871  166.2302 C.ar    1  UNL1       -0.0209
      2 C         139.4642  140.0017  167.3232 C.ar    1  UNL1       -0.0042
      3 C         140.2479  141.2530  167.0586 C.ar    1  UNL1        0.0010
      4 C         140.2084  141.8898  165.7011 C.ar    1  UNL1        0.0187
      5 C         139.3852  141.2752  164.6081 C.ar    1  UNL1        0.1106
      6 C         138.6015  140.0239  164.8727 C.ar    1  UNL1        0.0145
      7 C         141.0711  141.8676  168.1516 C.ar    1  UNL1        0.0000
      8 C         140.4511  142.8606  169.0895 C.ar    1  UNL1        0.0000
      9 C         141.2742  143.4752  170.1825 C.ar    1  UNL1        0.0000
     10 C         142.7175  143.0968  170.3377 C.ar    1  UNL1        0.0000
     11 C         143.3375  142.1038  169.3998 C.ar    1  UNL1        0.0000
     12 C         142.5143  141.4892  168.3068 C.ar    1  UNL1        0.0000
     13 S         139.3457  141.9119  163.2505 S.O2    1  UNL1        0.0346
     14 O         139.7368  143.2273  163.8560 O.2     1  UNL1       -0.1637
     15 O         138.9545  140.5965  162.6450 O.2     1  UNL1       -0.1637
     16 C         139.3061  142.5486  161.8929 C.ar    1  UNL1        0.1599
     17 C         138.3591  142.2004  160.7830 C.ar    1  UNL1        0.1244
     18 N         138.6743  143.0819  159.6110 N.ar    1  UNL1       -0.2384
     19 C         139.8162  143.9749  159.9966 C.ar    1  UNL1        0.1052
     20 S         140.2067  143.6453  161.4069 S.2     1  UNL1       -0.0508
     21 C         140.4554  145.0149  159.1249 C.3     1  UNL1        0.1186
     22 N         141.8167  145.5451  159.4651 N.3     1  UNL1       -0.3157
     23 H         141.7703  146.0630  160.3427 H       1  UNL1        0.1192
     24 H         142.1358  146.1653  158.7208 H       1  UNL1        0.1192
     25 C         137.0144  138.0259  167.7307 C.3     1  UNL1        0.0050
     26 C         137.8573  138.1358  166.4948 C.3     1  UNL1        0.0264
@<TRIPOS>BOND
     1    25    26    1
     2    26     1    1
     3     1     2   ar
     4     2     3   ar
     5     3     7    1
     6     7     8   ar
     7     8     9   ar
     8     9    10   ar
     9    10    11   ar
    10    11    12   ar
    11     3     4   ar
    12     4     5   ar
    13     5    13    1
    14    13    14    2
    15    13    15    2
    16    13    16    1
    17    16    17   ar
    18    17    18   ar
    19    18    19   ar
    20    19    21    1
    21    21    22    1
    22    19    20   ar
    23     5     6   ar
    24     6     1   ar
    25    12     7   ar
    26    20    16   ar
    27    22    23    1
    28    22    24    1
@<TRIPOS>MOLECULE
*****
 26 28 0 0 0
SMALL
GASTEIGER

@<TRIPOS>ATOM
      1 C         138.2630  139.2493  166.8587 C.ar    1  UNL1       -0.0209
      2 C         139.1981  139.9238  167.8182 C.ar    1  UNL1       -0.0042
      3 C         140.0389  141.0783  167.3596 C.ar    1  UNL1        0.0010
      4 C         139.9446  141.5582  165.9416 C.ar    1  UNL1        0.0187
      5 C         139.0096  140.8837  164.9822 C.ar    1  UNL1        0.1106
      6 C         138.1688  139.7292  165.4407 C.ar    1  UNL1        0.0145
      7 C         140.9739  141.7529  168.3192 C.ar    1  UNL1        0.0000
      8 C         140.4743  142.8584  169.2014 C.ar    1  UNL1        0.0000
      9 C         141.4093  143.5329  170.1609 C.ar    1  UNL1        0.0000
     10 C         142.8440  143.1020  170.2382 C.ar    1  UNL1        0.0000
     11 C         143.3437  141.9966  169.3560 C.ar    1  UNL1        0.0000
     12 C         142.4086  141.3220  168.3965 C.ar    1  UNL1        0.0000
     13 S         138.9153  141.3636  163.5641 S.O2    1  UNL1        0.0346
     14 O         139.7102  142.5836  163.9241 O.2     1  UNL1       -0.1637
     15 O         138.1204  140.1435  163.2041 O.2     1  UNL1       -0.1637
     16 C         138.8210  141.8434  162.1461 C.ar    1  UNL1        0.1599
     17 C         138.8619  143.2732  161.6945 C.ar    1  UNL1        0.1244
     18 N         138.7354  143.2912  160.2000 N.ar    1  UNL1       -0.2384
     19 C         138.6162  141.8724  159.7279 C.ar    1  UNL1        0.1052
     20 S         138.6691  140.9776  160.9306 S.2     1  UNL1       -0.0508
     21 C         138.4699  141.4266  158.3031 C.3     1  UNL1        0.1186
     22 N         137.3526  140.5032  157.9171 N.3     1  UNL1       -0.3157
     23 H         137.4895  139.5977  158.3661 H       1  UNL1        0.1192
     24 H         137.3455  140.3830  156.9043 H       1  UNL1        0.1192
     25 C         137.5595  136.7567  166.6535 C.3     1  UNL1        0.0050
     26 C         137.4222  138.0948  167.3172 C.3     1  UNL1        0.0264
@<TRIPOS>BOND
     1    25    26    1
     2    26     1    1
     3     1     2   ar
     4     2     3   ar
     5     3     7    1
     6     7     8   ar
     7     8     9   ar
     8     9    10   ar
     9    10    11   ar
    10    11    12   ar
    11     3     4   ar
    12     4     5   ar
    13     5    13    1
    14    13    14    2
    15    13    15    2
    16    13    16    1
    17    16    17   ar
    18    17    18   ar
    19    18    19   ar
    20    19    21    1
    21    21    22    1
    22    19    20   ar
    23     5     6   ar
    24     6     1   ar
    25    12     7   ar
    26    20    16   ar
    27    22    23    1
    28    22    24    1
@<TRIPOS>MOLECULE
*****
 26 28 0 0 0
SMALL
GASTEIGER

@<TRIPOS>ATOM
      1 C         139.2178  139.4076  164.9434 C.ar    1  UNL1       -0.0209
      2 C         139.5148  139.7336  166.3771 C.ar    1  UNL1       -0.0042
      3 C         139.8861  141.1338  166.7665 C.ar    1  UNL1        0.0010
      4 C         139.9605  142.2079  165.7222 C.ar    1  UNL1        0.0187
      5 C         139.6636  141.8819  164.2885 C.ar    1  UNL1        0.1106
      6 C         139.2922  140.4817  163.8991 C.ar    1  UNL1        0.0145
      7 C         140.1830  141.4598  168.2003 C.ar    1  UNL1        0.0000
      8 C         140.1540  140.3764  169.2373 C.ar    1  UNL1        0.0000
      9 C         140.4509  140.7023  170.6710 C.ar    1  UNL1        0.0000
     10 C         140.7769  142.1117  171.0677 C.ar    1  UNL1        0.0000
     11 C         140.8059  143.1952  170.0308 C.ar    1  UNL1        0.0000
     12 C         140.5089  142.8692  168.5970 C.ar    1  UNL1        0.0000
     13 S         139.7379  142.9561  163.2441 S.O2    1  UNL1        0.0346
     14 O         138.8219  143.8161  164.0633 O.2     1  UNL1       -0.1637
     15 O         140.6540  142.0961  162.4249 O.2     1  UNL1       -0.1637
     16 C         139.8124  144.0302  162.1997 C.ar    1  UNL1        0.1599
     17 C         139.3666  145.4529  162.3648 C.ar    1  UNL1        0.1244
     18 N         139.6243  146.1722  161.0740 N.ar    1  UNL1       -0.2384
     19 C         140.2294  145.1940  160.1112 C.ar    1  UNL1        0.1052
     20 S         140.3456  143.8702  160.8069 S.2     1  UNL1       -0.0508
     21 C         140.6453  145.4880  158.7002 C.3     1  UNL1        0.1186
     22 N         142.0844  145.7711  158.3861 N.3     1  UNL1       -0.3157
     23 H         142.3643  146.6447  158.8321 H       1  UNL1        0.1192
     24 H         142.2024  145.8519  157.3761 H       1  UNL1        0.1192
     25 C         138.9837  137.5642  163.1276 C.3     1  UNL1        0.0050
     26 C         138.8465  138.0074  164.5541 C.3     1  UNL1        0.0264
@<TRIPOS>BOND
     1    25    26    1
     2    26     1    1
     3     1     2   ar
     4     2     3   ar
     5     3     7    1
     6     7     8   ar
     7     8     9   ar
     8     9    10   ar
     9    10    11   ar
    10    11    12   ar
    11     3     4   ar
    12     4     5   ar
    13     5    13    1
    14    13    14    2
    15    13    15    2
    16    13    16    1
    17    16    17   ar
    18    17    18   ar
    19    18    19   ar
    20    19    21    1
    21    21    22    1
    22    19    20   ar
    23     5     6   ar
    24     6     1   ar
    25    12     7   ar
    26    20    16   ar
    27    22    23    1
    28    22    24    1
@<TRIPOS>MOLECULE
*****
 26 28 0 0 0
SMALL
GASTEIGER

@<TRIPOS>ATOM
      1 C         139.1221  142.8977  164.6283 C.ar    1  UNL1       -0.0209
      2 C         139.7195  143.0805  165.9919 C.ar    1  UNL1       -0.0042
      3 C         140.9610  142.3301  166.3736 C.ar    1  UNL1        0.0010
      4 C         141.6050  141.3969  165.3917 C.ar    1  UNL1        0.0187
      5 C         141.0076  141.2141  164.0280 C.ar    1  UNL1        0.1106
      6 C         139.7661  141.9645  163.6463 C.ar    1  UNL1        0.0145
      7 C         141.5584  142.5130  167.7374 C.ar    1  UNL1        0.0000
      8 C         142.9917  142.1457  167.9837 C.ar    1  UNL1        0.0000
      9 C         143.5891  142.3285  169.3473 C.ar    1  UNL1        0.0000
     10 C         142.7532  142.8787  170.4648 C.ar    1  UNL1        0.0000
     11 C         141.3199  143.2460  170.2185 C.ar    1  UNL1        0.0000
     12 C         140.7225  143.0631  168.8547 C.ar    1  UNL1        0.0000
     13 S         141.6517  140.2808  163.0460 S.O2    1  UNL1        0.0346
     14 O         141.4976  141.3106  161.9663 O.2     1  UNL1       -0.1637
     15 O         141.8057  139.2511  164.1257 O.2     1  UNL1       -0.1637
     16 C         142.2957  139.3476  162.0640 C.ar    1  UNL1        0.1599
     17 C         143.4858  138.4736  162.3283 C.ar    1  UNL1        0.1244
     18 N         143.7883  137.7104  161.0730 N.ar    1  UNL1       -0.2384
     19 C         142.7851  138.1126  160.0329 C.ar    1  UNL1        0.1052
     20 S         141.8626  139.1244  160.6454 S.2     1  UNL1       -0.0508
     21 C         142.7165  137.5940  158.6270 C.3     1  UNL1        0.1186
     22 N         143.3451  138.3719  157.5091 N.3     1  UNL1       -0.3157
     23 H         142.8499  139.2556  157.3894 H       1  UNL1        0.1192
     24 H         143.2898  137.8315  156.6458 H       1  UNL1        0.1192
     25 C         137.8121  144.3645  162.9305 C.3     1  UNL1        0.0050
     26 C         137.8806  143.6480  164.2465 C.3     1  UNL1        0.0264
@<TRIPOS>BOND
     1    25    26    1
     2    26     1    1
     3     1     2   ar
     4     2     3   ar
     5     3     7    1
     6     7     8   ar
     7     8     9   ar
     8     9    10   ar
     9    10    11   ar
    10    11    12   ar
    11     3     4   ar
    12     4     5   ar
    13     5    13    1
    14    13    14    2
    15    13    15    2
    16    13    16    1
    17    16    17   ar
    18    17    18   ar
    19    18    19   ar
    20    19    21    1
    21    21    22    1
    22    19    20   ar
    23     5     6   ar
    24     6     1   ar
    25    12     7   ar
    26    20    16   ar
    27    22    23    1
    28    22    24    1
@<TRIPOS>MOLECULE
*****
 26 28 0 0 0
SMALL
GASTEIGER

@<TRIPOS>ATOM
      1 C         140.2131  143.4970  164.9789 C.ar    1  UNL1       -0.0209
      2 C         140.6685  142.9680  166.3066 C.ar    1  UNL1       -0.0042
      3 C         141.7182  141.8982  166.3676 C.ar    1  UNL1        0.0010
      4 C         142.3124  141.3573  165.1010 C.ar    1  UNL1        0.0187
      5 C         141.8570  141.8863  163.7734 C.ar    1  UNL1        0.1106
      6 C         140.8073  142.9562  163.7123 C.ar    1  UNL1        0.0145
      7 C         142.1735  141.3692  167.6954 C.ar    1  UNL1        0.0000
      8 C         141.7873  139.9844  168.1235 C.ar    1  UNL1        0.0000
      9 C         142.2426  139.4554  169.4511 C.ar    1  UNL1        0.0000
     10 C         143.0843  140.3112  170.3508 C.ar    1  UNL1        0.0000
     11 C         143.4706  141.6959  169.9227 C.ar    1  UNL1        0.0000
     12 C         143.0152  142.2249  168.5950 C.ar    1  UNL1        0.0000
     13 S         142.4512  141.3455  162.5067 S.O2    1  UNL1        0.0346
     14 O         141.2941  141.8975  161.7281 O.2     1  UNL1       -0.1637
     15 O         143.6083  140.7934  163.2853 O.2     1  UNL1       -0.1637
     16 C         143.0455  140.8047  161.2401 C.ar    1  UNL1        0.1599
     17 C         143.4415  139.3796  160.9902 C.ar    1  UNL1        0.1244
     18 N         143.9888  139.2881  159.5966 N.ar    1  UNL1       -0.2384
     19 C         143.9310  140.6567  158.9852 C.ar    1  UNL1        0.1052
     20 S         143.3480  141.5939  160.0009 S.2     1  UNL1       -0.0508
     21 C         144.3779  141.0236  157.6011 C.3     1  UNL1        0.1186
     22 N         145.3387  140.1385  156.8639 N.3     1  UNL1       -0.3157
     23 H         146.2402  140.1434  157.3412 H       1  UNL1        0.1192
     24 H         145.4565  140.4836  155.9113 H       1  UNL1        0.1192
     25 C         137.7405  144.2048  164.6115 C.3     1  UNL1        0.0050
     26 C         139.1635  144.5668  164.9178 C.3     1  UNL1        0.0264
@<TRIPOS>BOND
     1    25    26    1
     2    26     1    1
     3     1     2   ar
     4     2     3   ar
     5     3     7    1
     6     7     8   ar
     7     8     9   ar
     8     9    10   ar
     9    10    11   ar
    10    11    12   ar
    11     3     4   ar
    12     4     5   ar
    13     5    13    1
    14    13    14    2
    15    13    15    2
    16    13    16    1
    17    16    17   ar
    18    17    18   ar
    19    18    19   ar
    20    19    21    1
    21    21    22    1
    22    19    20   ar
    23     5     6   ar
    24     6     1   ar
    25    12     7   ar
    26    20    16   ar
    27    22    23    1
    28    22    24    1
@<TRIPOS>MOLECULE
*****
 26 28 0 0 0
SMALL
GASTEIGER

@<TRIPOS>ATOM
      1 C         141.3199  144.1632  163.5416 C.ar    1  UNL1       -0.0209
      2 C         141.0320  143.3985  164.7995 C.ar    1  UNL1       -0.0042
      3 C         140.1204  142.2079  164.7615 C.ar    1  UNL1        0.0010
      4 C         139.4967  141.7820  163.4656 C.ar    1  UNL1        0.0187
      5 C         139.7845  142.5467  162.2077 C.ar    1  UNL1        0.1106
      6 C         140.6962  143.7372  162.2457 C.ar    1  UNL1        0.0145
      7 C         139.8326  141.4433  166.0195 C.ar    1  UNL1        0.0000
      8 C         139.0164  140.1860  165.9628 C.ar    1  UNL1        0.0000
      9 C         138.7286  139.4213  167.2207 C.ar    1  UNL1        0.0000
     10 C         139.2568  139.9139  168.5354 C.ar    1  UNL1        0.0000
     11 C         140.0730  141.1712  168.5921 C.ar    1  UNL1        0.0000
     12 C         140.3608  141.9359  167.3341 C.ar    1  UNL1        0.0000
     13 S         139.1608  142.1207  160.9116 S.O2    1  UNL1        0.0346
     14 O         137.9353  142.9217  161.2381 O.2     1  UNL1       -0.1637
     15 O         140.3862  141.3198  160.5851 O.2     1  UNL1       -0.1637
     16 C         138.5371  141.6948  159.6157 C.ar    1  UNL1        0.1599
     17 C         138.1305  140.2980  159.2499 C.ar    1  UNL1        0.1244
     18 N         137.5526  140.3308  157.8661 N.ar    1  UNL1       -0.2384
     19 C         137.6020  141.7479  157.3766 C.ar    1  UNL1        0.1052
     20 S         138.2105  142.5909  158.4579 S.2     1  UNL1       -0.0508
     21 C         137.1265  142.2363  156.0404 C.3     1  UNL1        0.1186
     22 N         136.4596  143.5749  155.9251 N.3     1  UNL1       -0.3157
     23 H         135.5714  143.5566  156.4261 H       1  UNL1        0.1192
     24 H         136.2910  143.7872  154.9417 H       1  UNL1        0.1192
     25 C         143.7033  145.1647  163.7988 C.3     1  UNL1        0.0050
     26 C         142.2315  145.3538  163.5796 C.3     1  UNL1        0.0264
@<TRIPOS>BOND
     1    25    26    1
     2    26     1    1
     3     1     2   ar
     4     2     3   ar
     5     3     7    1
     6     7     8   ar
     7     8     9   ar
     8     9    10   ar
     9    10    11   ar
    10    11    12   ar
    11     3     4   ar
    12     4     5   ar
    13     5    13    1
    14    13    14    2
    15    13    15    2
    16    13    16    1
    17    16    17   ar
    18    17    18   ar
    19    18    19   ar
    20    19    21    1
    21    21    22    1
    22    19    20   ar
    23     5     6   ar
    24     6     1   ar
    25    12     7   ar
    26    20    16   ar
    27    22    23    1
    28    22    24    1
@<TRIPOS>MOLECULE
*****
 26 28 0 0 0
SMALL
GASTEIGER

@<TRIPOS>ATOM
      1 C         143.6762  140.1376  164.4403 C.ar    1  UNL1       -0.0209
      2 C         143.2117  140.0960  165.8659 C.ar    1  UNL1       -0.0042
      3 C         141.7451  140.0395  166.1756 C.ar    1  UNL1        0.0010
      4 C         140.7430  140.0247  165.0595 C.ar    1  UNL1        0.0187
      5 C         141.2075  140.0663  163.6339 C.ar    1  UNL1        0.1106
      6 C         142.6741  140.1228  163.3243 C.ar    1  UNL1        0.0145
      7 C         141.2806  139.9979  167.6013 C.ar    1  UNL1        0.0000
      8 C         142.2169  139.5450  168.6822 C.ar    1  UNL1        0.0000
      9 C         141.7524  139.5034  170.1078 C.ar    1  UNL1        0.0000
     10 C         140.3517  139.9146  170.4526 C.ar    1  UNL1        0.0000
     11 C         139.4154  140.3674  169.3718 C.ar    1  UNL1        0.0000
     12 C         139.8799  140.4091  167.9460 C.ar    1  UNL1        0.0000
     13 S         140.2054  140.0515  162.5178 S.O2    1  UNL1        0.0346
     14 O         139.2523  139.2821  163.3837 O.2     1  UNL1       -0.1637
     15 O         141.1584  140.8208  161.6519 O.2     1  UNL1       -0.1637
     16 C         139.2033  140.0367  161.4017 C.ar    1  UNL1        0.1599
     17 C         137.8307  139.4344  161.4571 C.ar    1  UNL1        0.1244
     18 N         137.1770  139.6470  160.1239 N.ar    1  UNL1       -0.2384
     19 C         138.1457  140.3807  159.2445 C.ar    1  UNL1        0.1052
     20 S         139.3980  140.6215  160.0343 S.2     1  UNL1       -0.0508
     21 C         137.9044  140.8000  157.8247 C.3     1  UNL1        0.1186
     22 N         136.5939  140.4909  157.1638 N.3     1  UNL1       -0.3157
     23 H         136.4939  139.4809  157.0628 H       1  UNL1        0.1192
     24 H         136.5656  140.9291  156.2431 H       1  UNL1        0.1192
     25 C         145.7604  141.4761  163.6565 C.3     1  UNL1        0.0050
     26 C         145.1428  140.1941  164.1307 C.3     1  UNL1        0.0264
@<TRIPOS>BOND
     1    25    26    1
     2    26     1    1
     3     1     2   ar
     4     2     3   ar
     5     3     7    1
     6     7     8   ar
     7     8     9   ar
     8     9    10   ar
     9    10    11   ar
    10    11    12   ar
    11     3     4   ar
    12     4     5   ar
    13     5    13    1
    14    13    14    2
    15    13    15    2
    16    13    16    1
    17    16    17   ar
    18    17    18   ar
    19    18    19   ar
    20    19    21    1
    21    21    22    1
    22    19    20   ar
    23     5     6   ar
    24     6     1   ar
    25    12     7   ar
    26    20    16   ar
    27    22    23    1
    28    22    24    1
@<TRIPOS>MOLECULE
*****
 26 28 0 0 0
SMALL
GASTEIGER

@<TRIPOS>ATOM
      1 C         140.0525  143.3425  164.7846 C.ar    1  UNL1       -0.0209
      2 C         140.5263  142.9130  166.1414 C.ar    1  UNL1       -0.0042
      3 C         141.5128  141.7905  166.2708 C.ar    1  UNL1        0.0010
      4 C         142.0257  141.0976  165.0433 C.ar    1  UNL1        0.0187
      5 C         141.5519  141.5271  163.6865 C.ar    1  UNL1        0.1106
      6 C         140.5653  142.6495  163.5571 C.ar    1  UNL1        0.0145
      7 C         141.9866  141.3610  167.6277 C.ar    1  UNL1        0.0000
      8 C         142.9519  142.2186  168.3912 C.ar    1  UNL1        0.0000
      9 C         143.4256  141.7891  169.7480 C.ar    1  UNL1        0.0000
     10 C         142.9341  140.5021  170.3415 C.ar    1  UNL1        0.0000
     11 C         141.9689  139.6446  169.5780 C.ar    1  UNL1        0.0000
     12 C         141.4951  140.0741  168.2210 C.ar    1  UNL1        0.0000
     13 S         142.0647  140.8341  162.4589 S.O2    1  UNL1        0.0346
     14 O         141.7055  142.0329  161.6320 O.2     1  UNL1       -0.1637
     15 O         142.4239  139.6353  163.2857 O.2     1  UNL1       -0.1637
     16 C         142.5775  140.1411  161.2314 C.ar    1  UNL1        0.1599
     17 C         143.9665  140.2461  160.6750 C.ar    1  UNL1        0.1244
     18 N         144.0388  139.3913  159.4445 N.ar    1  UNL1       -0.2384
     19 C         142.6944  138.7581  159.2404 C.ar    1  UNL1        0.1052
     20 S         141.7913  139.2215  160.3448 S.2     1  UNL1       -0.0508
     21 C         142.3190  137.8252  158.1273 C.3     1  UNL1        0.1186
     22 N         143.2562  137.6173  156.9748 N.3     1  UNL1       -0.3157
     23 H         143.3443  138.4858  156.4472 H       1  UNL1        0.1192
     24 H         142.8896  136.8854  156.3662 H       1  UNL1        0.1192
     25 C         138.4157  145.0369  165.8800 C.3     1  UNL1        0.0050
     26 C         139.0659  144.4650  164.6553 C.3     1  UNL1        0.0264
@<TRIPOS>BOND
     1    25    26    1
     2    26     1    1
     3     1     2   ar
     4     2     3   ar
     5     3     7    1
     6     7     8   ar
     7     8     9   ar
     8     9    10   ar
     9    10    11   ar
    10    11    12   ar
    11     3     4   ar
    12     4     5   ar
    13     5    13    1
    14    13    14    2
    15    13    15    2
    16    13    16    1
    17    16    17   ar
    18    17    18   ar
    19    18    19   ar
    20    19    21    1
    21    21    22    1
    22    19    20   ar
    23     5     6   ar
    24     6     1   ar
    25    12     7   ar
    26    20    16   ar
    27    22    23    1
    28    22    24    1
