@<TRIPOS>MOLECULE
*****
 24 26 0 0 0
SMALL
GASTEIGER

@<TRIPOS>ATOM
      1 P         141.2855  141.2985  164.2347 P.3     1  UNL1        0.2266
      2 O         140.1065  141.9887  163.6154 O.2     1  UNL1       -0.2903
      3 C         142.1882  142.3822  163.7241 C.ar    1  UNL1        0.0498
      4 C         142.6459  143.4734  164.6459 C.ar    1  UNL1        0.0046
      5 C         143.5486  144.5571  164.1353 C.ar    1  UNL1        0.0002
      6 C         143.9935  144.5496  162.7029 C.ar    1  UNL1        0.0000
      7 C         143.5358  143.4585  161.7810 C.ar    1  UNL1        0.0002
      8 C         142.6331  142.3748  162.2917 C.ar    1  UNL1        0.0046
      9 C         140.3828  140.2148  164.7454 C.ar    1  UNL1        0.0498
     10 C         139.3898  140.5144  165.8289 C.ar    1  UNL1        0.0046
     11 C         138.4871  139.4307  166.3395 C.ar    1  UNL1        0.0002
     12 C         138.5774  138.0474  165.7666 C.ar    1  UNL1        0.0000
     13 C         139.5705  137.7478  164.6831 C.ar    1  UNL1        0.0002
     14 C         140.4731  138.8315  164.1725 C.ar    1  UNL1        0.0046
     15 N         142.4645  140.6083  164.8541 N.pl3   1  UNL1       -0.2602
     16 C         142.6117  140.5691  166.3464 C.ar    1  UNL1        0.0724
     17 C         142.6720  141.8479  167.1280 C.ar    1  UNL1        0.0180
     18 C         142.8193  141.8086  168.6202 C.ar    1  UNL1        0.0220
     19 C         142.9062  140.4905  169.3308 C.ar    1  UNL1        0.0990
     20 N         142.8459  139.2117  168.5493 N.ar    1  UNL1       -0.2410
     21 C         142.6986  139.2510  167.0571 C.ar    1  UNL1        0.1136
     22 C         143.4962  139.9574  163.9813 C.3     1  UNL1        0.0975
     23 C         145.6988  141.3353  163.9824 C.3     1  UNL1        0.0018
     24 C         144.9519  140.0796  164.3219 C.3     1  UNL1        0.0218
@<TRIPOS>BOND
     1    23    24    1
     2    24    22    1
     3    22    15    1
     4    15    16    1
     5    16    17   ar
     6    17    18   ar
     7    18    19   ar
     8    19    20   ar
     9    20    21   ar
    10    15     1    1
    11     1     2    2
    12     1     3    1
    13     3     4   ar
    14     4     5   ar
    15     5     6   ar
    16     6     7   ar
    17     7     8   ar
    18     1     9    1
    19     9    10   ar
    20    10    11   ar
    21    11    12   ar
    22    12    13   ar
    23    13    14   ar
    24    21    16   ar
    25     8     3   ar
    26    14     9   ar
@<TRIPOS>MOLECULE
*****
 24 26 0 0 0
SMALL
GASTEIGER

@<TRIPOS>ATOM
      1 P         141.2450  141.2668  164.2346 P.3     1  UNL1        0.2266
      2 O         140.0626  141.9585  163.6233 O.2     1  UNL1       -0.2903
      3 C         140.3438  140.1867  164.7554 C.ar    1  UNL1        0.0498
      4 C         139.3661  140.4896  165.8519 C.ar    1  UNL1        0.0046
      5 C         138.4649  139.4095  166.3727 C.ar    1  UNL1        0.0002
      6 C         138.5415  138.0265  165.7971 C.ar    1  UNL1        0.0000
      7 C         139.5192  137.7236  164.7006 C.ar    1  UNL1        0.0002
      8 C         140.4204  138.8037  164.1798 C.ar    1  UNL1        0.0046
      9 C         142.1461  142.3470  163.7138 C.ar    1  UNL1        0.0498
     10 C         142.6052  143.4455  164.6262 C.ar    1  UNL1        0.0046
     11 C         143.5063  144.5256  164.1054 C.ar    1  UNL1        0.0002
     12 C         143.9484  144.5072  162.6721 C.ar    1  UNL1        0.0000
     13 C         143.4894  143.4087  161.7598 C.ar    1  UNL1        0.0002
     14 C         142.5882  142.3286  162.2806 C.ar    1  UNL1        0.0046
     15 N         142.4273  140.5751  164.8459 N.pl3   1  UNL1       -0.2602
     16 C         142.5788  140.5257  166.3374 C.ar    1  UNL1        0.0724
     17 C         142.6356  141.7991  167.1281 C.ar    1  UNL1        0.0180
     18 C         142.7871  141.7497  168.6196 C.ar    1  UNL1        0.0220
     19 C         142.8817  140.4268  169.3204 C.ar    1  UNL1        0.0990
     20 N         142.8248  139.1534  168.5297 N.ar    1  UNL1       -0.2410
     21 C         142.6734  139.2029  167.0382 C.ar    1  UNL1        0.1136
     22 C         143.4581  139.9329  163.9656 C.3     1  UNL1        0.0975
     23 C         145.6653  141.3033  163.9493 C.3     1  UNL1        0.0018
     24 C         144.9144  140.0543  164.3043 C.3     1  UNL1        0.0218
@<TRIPOS>BOND
     1    23    24    1
     2    24    22    1
     3    22    15    1
     4    15    16    1
     5    16    17   ar
     6    17    18   ar
     7    18    19   ar
     8    19    20   ar
     9    20    21   ar
    10    15     1    1
    11     1     2    2
    12     1     3    1
    13     3     4   ar
    14     4     5   ar
    15     5     6   ar
    16     6     7   ar
    17     7     8   ar
    18     1     9    1
    19     9    10   ar
    20    10    11   ar
    21    11    12   ar
    22    12    13   ar
    23    13    14   ar
    24    21    16   ar
    25     8     3   ar
    26    14     9   ar
@<TRIPOS>MOLECULE
*****
 24 26 0 0 0
SMALL
GASTEIGER

@<TRIPOS>ATOM
      1 P         141.7280  140.1664  165.4037 P.3     1  UNL1        0.2266
      2 O         142.4166  139.6000  166.6100 O.2     1  UNL1       -0.2903
      3 C         143.0180  140.7903  164.9603 C.ar    1  UNL1        0.0498
      4 C         143.2961  142.2330  165.2625 C.ar    1  UNL1        0.0046
      5 C         144.5861  142.8570  164.8191 C.ar    1  UNL1        0.0002
      6 C         145.5979  142.0383  164.0736 C.ar    1  UNL1        0.0000
      7 C         145.3198  140.5957  163.7714 C.ar    1  UNL1        0.0002
      8 C         144.0298  139.9717  164.2148 C.ar    1  UNL1        0.0046
      9 C         140.4380  139.5424  165.8471 C.ar    1  UNL1        0.0498
     10 C         139.7352  140.0593  167.0673 C.ar    1  UNL1        0.0046
     11 C         138.4453  139.4353  167.5107 C.ar    1  UNL1        0.0002
     12 C         137.8580  138.2944  166.7339 C.ar    1  UNL1        0.0000
     13 C         138.5608  137.7775  165.5137 C.ar    1  UNL1        0.0002
     14 C         139.8508  138.4014  165.0703 C.ar    1  UNL1        0.0046
     15 N         141.0394  140.7327  164.1974 N.pl3   1  UNL1       -0.2602
     16 C         139.9940  141.7960  164.3608 C.ar    1  UNL1        0.0724
     17 C         140.3238  143.0669  165.0859 C.ar    1  UNL1        0.0180
     18 C         139.2784  144.1301  165.2493 C.ar    1  UNL1        0.0220
     19 C         137.9032  143.9223  164.6874 C.ar    1  UNL1        0.0990
     20 N         137.5734  142.6514  163.9623 N.ar    1  UNL1       -0.2410
     21 C         138.6188  141.5882  163.7990 C.ar    1  UNL1        0.1136
     22 C         141.3962  140.2359  162.8279 C.3     1  UNL1        0.0975
     23 C         142.5249  142.2288  161.6013 C.3     1  UNL1        0.0018
     24 C         141.4441  141.1912  161.6723 C.3     1  UNL1        0.0218
@<TRIPOS>BOND
     1    23    24    1
     2    24    22    1
     3    22    15    1
     4    15    16    1
     5    16    17   ar
     6    17    18   ar
     7    18    19   ar
     8    19    20   ar
     9    20    21   ar
    10    15     1    1
    11     1     2    2
    12     1     3    1
    13     3     4   ar
    14     4     5   ar
    15     5     6   ar
    16     6     7   ar
    17     7     8   ar
    18     1     9    1
    19     9    10   ar
    20    10    11   ar
    21    11    12   ar
    22    12    13   ar
    23    13    14   ar
    24    21    16   ar
    25     8     3   ar
    26    14     9   ar
@<TRIPOS>MOLECULE
*****
 24 26 0 0 0
SMALL
GASTEIGER

@<TRIPOS>ATOM
      1 P         141.7280  140.1588  165.3938 P.3     1  UNL1        0.2266
      2 O         142.4172  139.5908  166.5990 O.2     1  UNL1       -0.2903
      3 C         140.4394  139.5301  165.8344 C.ar    1  UNL1        0.0498
      4 C         139.8603  138.3842  165.0589 C.ar    1  UNL1        0.0046
      5 C         138.5716  137.7555  165.4994 C.ar    1  UNL1        0.0002
      6 C         137.8620  138.2728  166.7155 C.ar    1  UNL1        0.0000
      7 C         138.4411  139.4188  167.4910 C.ar    1  UNL1        0.0002
      8 C         139.7297  140.0474  167.0504 C.ar    1  UNL1        0.0046
      9 C         143.0167  140.7875  164.9533 C.ar    1  UNL1        0.0498
     10 C         144.0259  139.9771  164.1952 C.ar    1  UNL1        0.0046
     11 C         145.3146  140.6058  163.7546 C.ar    1  UNL1        0.0002
     12 C         145.5941  142.0448  164.0722 C.ar    1  UNL1        0.0000
     13 C         144.5849  142.8552  164.8302 C.ar    1  UNL1        0.0002
     14 C         143.2962  142.2266  165.2708 C.ar    1  UNL1        0.0046
     15 N         141.0389  140.7268  164.1886 N.pl3   1  UNL1       -0.2602
     16 C         139.9932  141.7895  164.3540 C.ar    1  UNL1        0.0724
     17 C         140.3290  143.0686  165.0617 C.ar    1  UNL1        0.0180
     18 C         139.2833  144.1312  165.2270 C.ar    1  UNL1        0.0220
     19 C         137.9017  143.9145  164.6846 C.ar    1  UNL1        0.0990
     20 N         137.5658  142.6354  163.9769 N.ar    1  UNL1       -0.2410
     21 C         138.6115  141.5729  163.8116 C.ar    1  UNL1        0.1136
     22 C         141.3955  140.2323  162.8182 C.3     1  UNL1        0.0975
     23 C         142.4838  142.2720  161.6328 C.3     1  UNL1        0.0018
     24 C         141.4456  141.1900  161.6647 C.3     1  UNL1        0.0218
@<TRIPOS>BOND
     1    23    24    1
     2    24    22    1
     3    22    15    1
     4    15    16    1
     5    16    17   ar
     6    17    18   ar
     7    18    19   ar
     8    19    20   ar
     9    20    21   ar
    10    15     1    1
    11     1     2    2
    12     1     3    1
    13     3     4   ar
    14     4     5   ar
    15     5     6   ar
    16     6     7   ar
    17     7     8   ar
    18     1     9    1
    19     9    10   ar
    20    10    11   ar
    21    11    12   ar
    22    12    13   ar
    23    13    14   ar
    24    21    16   ar
    25     8     3   ar
    26    14     9   ar
@<TRIPOS>MOLECULE
*****
 24 26 0 0 0
SMALL
GASTEIGER

@<TRIPOS>ATOM
      1 P         142.5019  142.1533  166.0877 P.3     1  UNL1        0.2266
      2 O         143.6837  142.6416  166.8718 O.2     1  UNL1       -0.2903
      3 C         141.8832  141.6263  167.3484 C.ar    1  UNL1        0.0498
      4 C         140.8288  142.4240  168.0567 C.ar    1  UNL1        0.0046
      5 C         140.2100  141.8971  169.3174 C.ar    1  UNL1        0.0002
      6 C         140.6457  140.5723  169.8699 C.ar    1  UNL1        0.0000
      7 C         141.7001  139.7746  169.1616 C.ar    1  UNL1        0.0002
      8 C         142.3189  140.3016  167.9008 C.ar    1  UNL1        0.0046
      9 C         143.1207  142.6802  164.8269 C.ar    1  UNL1        0.0498
     10 C         143.6826  141.7287  163.8126 C.ar    1  UNL1        0.0046
     11 C         144.3013  142.2557  162.5519 C.ar    1  UNL1        0.0002
     12 C         144.3582  143.7342  162.3055 C.ar    1  UNL1        0.0000
     13 C         143.7963  144.6857  163.3198 C.ar    1  UNL1        0.0002
     14 C         143.1775  144.1587  164.5805 C.ar    1  UNL1        0.0046
     15 N         141.3201  141.6649  165.3036 N.pl3   1  UNL1       -0.2602
     16 C         140.3980  142.6486  164.6460 C.ar    1  UNL1        0.0724
     17 C         139.7042  143.6926  165.4698 C.ar    1  UNL1        0.0180
     18 C         138.7822  144.6762  164.8122 C.ar    1  UNL1        0.0220
     19 C         138.5540  144.6157  163.3309 C.ar    1  UNL1        0.0990
     20 N         139.2478  143.5717  162.5071 N.ar    1  UNL1       -0.2410
     21 C         140.1698  142.5881  163.1647 C.ar    1  UNL1        0.1136
     22 C         141.0603  140.1931  165.1770 C.3     1  UNL1        0.0975
     23 C         138.9241  139.5689  166.5175 C.3     1  UNL1        0.0018
     24 C         139.6533  139.6741  165.2110 C.3     1  UNL1        0.0218
@<TRIPOS>BOND
     1    23    24    1
     2    24    22    1
     3    22    15    1
     4    15    16    1
     5    16    17   ar
     6    17    18   ar
     7    18    19   ar
     8    19    20   ar
     9    20    21   ar
    10    15     1    1
    11     1     2    2
    12     1     3    1
    13     3     4   ar
    14     4     5   ar
    15     5     6   ar
    16     6     7   ar
    17     7     8   ar
    18     1     9    1
    19     9    10   ar
    20    10    11   ar
    21    11    12   ar
    22    12    13   ar
    23    13    14   ar
    24    21    16   ar
    25     8     3   ar
    26    14     9   ar
@<TRIPOS>MOLECULE
*****
 24 26 0 0 0
SMALL
GASTEIGER

@<TRIPOS>ATOM
      1 P         140.9123  140.6746  167.2814 P.3     1  UNL1        0.2266
      2 O         140.2563  139.8257  168.3298 O.2     1  UNL1       -0.2903
      3 C         141.5167  141.5319  168.3536 C.ar    1  UNL1        0.0498
      4 C         142.8840  141.2168  168.8840 C.ar    1  UNL1        0.0046
      5 C         143.4884  142.0740  169.9562 C.ar    1  UNL1        0.0002
      6 C         142.7256  143.2464  170.4981 C.ar    1  UNL1        0.0000
      7 C         141.3584  143.5615  169.9677 C.ar    1  UNL1        0.0002
      8 C         140.7540  142.7042  168.8955 C.ar    1  UNL1        0.0046
      9 C         140.3078  139.8173  166.2091 C.ar    1  UNL1        0.0498
     10 C         141.1652  138.8463  165.4529 C.ar    1  UNL1        0.0046
     11 C         140.5607  137.9890  164.3807 C.ar    1  UNL1        0.0002
     12 C         139.0989  138.1028  164.0646 C.ar    1  UNL1        0.0000
     13 C         138.2415  139.0738  164.8208 C.ar    1  UNL1        0.0002
     14 C         138.8459  139.9311  165.8931 C.ar    1  UNL1        0.0046
     15 N         141.5682  141.5234  166.2329 N.pl3   1  UNL1       -0.2602
     16 C         140.7337  142.4043  165.3510 C.ar    1  UNL1        0.0724
     17 C         139.8489  143.4520  165.9590 C.ar    1  UNL1        0.0180
     18 C         139.0145  144.3328  165.0770 C.ar    1  UNL1        0.0220
     19 C         139.0647  144.1659  163.5872 C.ar    1  UNL1        0.0990
     20 N         139.9494  143.1183  162.9793 N.ar    1  UNL1       -0.2410
     21 C         140.7839  142.2375  163.8612 C.ar    1  UNL1        0.1136
     22 C         143.0585  141.4915  166.0664 C.3     1  UNL1        0.0975
     23 C         144.5884  142.9184  164.5259 C.3     1  UNL1        0.0018
     24 C         143.8108  142.7614  165.7988 C.3     1  UNL1        0.0218
@<TRIPOS>BOND
     1    23    24    1
     2    24    22    1
     3    22    15    1
     4    15    16    1
     5    16    17   ar
     6    17    18   ar
     7    18    19   ar
     8    19    20   ar
     9    20    21   ar
    10    15     1    1
    11     1     2    2
    12     1     3    1
    13     3     4   ar
    14     4     5   ar
    15     5     6   ar
    16     6     7   ar
    17     7     8   ar
    18     1     9    1
    19     9    10   ar
    20    10    11   ar
    21    11    12   ar
    22    12    13   ar
    23    13    14   ar
    24    21    16   ar
    25     8     3   ar
    26    14     9   ar
@<TRIPOS>MOLECULE
*****
 24 26 0 0 0
SMALL
GASTEIGER

@<TRIPOS>ATOM
      1 P         140.8231  140.7557  167.1788 P.3     1  UNL1        0.2266
      2 O         140.1288  139.8979  168.1947 O.2     1  UNL1       -0.2903
      3 C         140.1962  139.9562  166.0752 C.ar    1  UNL1        0.0498
      4 C         138.7443  140.1408  165.7469 C.ar    1  UNL1        0.0046
      5 C         138.1173  139.3414  164.6434 C.ar    1  UNL1        0.0002
      6 C         138.9423  138.3573  163.8682 C.ar    1  UNL1        0.0000
      7 C         140.3942  138.1726  164.1965 C.ar    1  UNL1        0.0002
      8 C         141.0211  138.9721  165.3001 C.ar    1  UNL1        0.0046
      9 C         141.4501  141.5552  168.2823 C.ar    1  UNL1        0.0498
     10 C         142.7937  141.1637  168.8220 C.ar    1  UNL1        0.0046
     11 C         143.4207  141.9632  169.9255 C.ar    1  UNL1        0.0002
     12 C         142.7040  143.1541  170.4893 C.ar    1  UNL1        0.0000
     13 C         141.3603  143.5456  169.9496 C.ar    1  UNL1        0.0002
     14 C         140.7334  142.7461  168.8461 C.ar    1  UNL1        0.0046
     15 N         141.5175  141.6135  166.1628 N.pl3   1  UNL1       -0.2602
     16 C         140.7213  142.5457  165.2984 C.ar    1  UNL1        0.0724
     17 C         139.8335  143.5779  165.9279 C.ar    1  UNL1        0.0180
     18 C         139.0373  144.5101  165.0634 C.ar    1  UNL1        0.0220
     19 C         139.1290  144.4100  163.5696 C.ar    1  UNL1        0.0990
     20 N         140.0168  143.3777  162.9402 N.ar    1  UNL1       -0.2410
     21 C         140.8130  142.4456  163.8046 C.ar    1  UNL1        0.1136
     22 C         143.0079  141.5391  166.0113 C.3     1  UNL1        0.0975
     23 C         144.5810  142.9878  164.5360 C.3     1  UNL1        0.0018
     24 C         143.8043  142.7933  165.8044 C.3     1  UNL1        0.0218
@<TRIPOS>BOND
     1    23    24    1
     2    24    22    1
     3    22    15    1
     4    15    16    1
     5    16    17   ar
     6    17    18   ar
     7    18    19   ar
     8    19    20   ar
     9    20    21   ar
    10    15     1    1
    11     1     2    2
    12     1     3    1
    13     3     4   ar
    14     4     5   ar
    15     5     6   ar
    16     6     7   ar
    17     7     8   ar
    18     1     9    1
    19     9    10   ar
    20    10    11   ar
    21    11    12   ar
    22    12    13   ar
    23    13    14   ar
    24    21    16   ar
    25     8     3   ar
    26    14     9   ar
@<TRIPOS>MOLECULE
*****
 24 26 0 0 0
SMALL
GASTEIGER

@<TRIPOS>ATOM
      1 P         142.4630  142.1282  166.1944 P.3     1  UNL1        0.2266
      2 O         143.6539  142.6043  166.9723 O.2     1  UNL1       -0.2903
      3 C         143.0832  142.6436  164.9296 C.ar    1  UNL1        0.0498
      4 C         143.1465  144.1200  164.6728 C.ar    1  UNL1        0.0046
      5 C         143.7667  144.6354  163.4079 C.ar    1  UNL1        0.0002
      6 C         144.3236  143.6743  162.3999 C.ar    1  UNL1        0.0000
      7 C         144.2602  142.1978  162.6567 C.ar    1  UNL1        0.0002
      8 C         143.6400  141.6825  163.9215 C.ar    1  UNL1        0.0046
      9 C         141.8428  141.6129  167.4592 C.ar    1  UNL1        0.0498
     10 C         140.7813  142.4130  168.1541 C.ar    1  UNL1        0.0046
     11 C         140.1611  141.8976  169.4190 C.ar    1  UNL1        0.0002
     12 C         140.6024  140.5822  169.9888 C.ar    1  UNL1        0.0000
     13 C         141.6639  139.7821  169.2939 C.ar    1  UNL1        0.0002
     14 C         142.2841  140.2974  168.0291 C.ar    1  UNL1        0.0046
     15 N         141.2721  141.6521  165.4165 N.pl3   1  UNL1       -0.2602
     16 C         140.3766  142.6436  164.7344 C.ar    1  UNL1        0.0724
     17 C         139.6810  143.7025  165.5373 C.ar    1  UNL1        0.0180
     18 C         138.7856  144.6939  164.8552 C.ar    1  UNL1        0.0220
     19 C         138.5858  144.6264  163.3701 C.ar    1  UNL1        0.0990
     20 N         139.2814  143.5675  162.5671 N.ar    1  UNL1       -0.2410
     21 C         140.1768  142.5761  163.2493 C.ar    1  UNL1        0.1136
     22 C         140.9767  140.1847  165.3206 C.3     1  UNL1        0.0975
     23 C         138.9052  139.4375  166.6993 C.3     1  UNL1        0.0018
     24 C         139.5581  139.7001  165.3746 C.3     1  UNL1        0.0218
@<TRIPOS>BOND
     1    23    24    1
     2    24    22    1
     3    22    15    1
     4    15    16    1
     5    16    17   ar
     6    17    18   ar
     7    18    19   ar
     8    19    20   ar
     9    20    21   ar
    10    15     1    1
    11     1     2    2
    12     1     3    1
    13     3     4   ar
    14     4     5   ar
    15     5     6   ar
    16     6     7   ar
    17     7     8   ar
    18     1     9    1
    19     9    10   ar
    20    10    11   ar
    21    11    12   ar
    22    12    13   ar
    23    13    14   ar
    24    21    16   ar
    25     8     3   ar
    26    14     9   ar
@<TRIPOS>MOLECULE
*****
 24 26 0 0 0
SMALL
GASTEIGER

@<TRIPOS>ATOM
      1 P         140.8513  142.0340  166.6110 P.3     1  UNL1        0.2266
      2 O         140.2329  143.1098  167.4538 O.2     1  UNL1       -0.2903
      3 C         140.2389  142.6430  165.3845 C.ar    1  UNL1        0.0498
      4 C         141.1014  143.3773  164.4013 C.ar    1  UNL1        0.0046
      5 C         140.4890  143.9863  163.1748 C.ar    1  UNL1        0.0002
      6 C         139.0142  143.8609  162.9316 C.ar    1  UNL1        0.0000
      7 C         138.1518  143.1265  163.9148 C.ar    1  UNL1        0.0002
      8 C         138.7641  142.5176  165.1413 C.ar    1  UNL1        0.0046
      9 C         141.4636  141.4251  167.8374 C.ar    1  UNL1        0.0498
     10 C         140.8210  140.2340  168.4841 C.ar    1  UNL1        0.0046
     11 C         141.4334  139.6250  169.7106 C.ar    1  UNL1        0.0002
     12 C         142.6883  140.2072  170.2904 C.ar    1  UNL1        0.0000
     13 C         143.3309  141.3983  169.6437 C.ar    1  UNL1        0.0002
     14 C         142.7185  142.0073  168.4172 C.ar    1  UNL1        0.0046
     15 N         141.4696  140.9583  165.7681 N.pl3   1  UNL1       -0.2602
     16 C         140.5956  139.9784  165.0428 C.ar    1  UNL1        0.0724
     17 C         139.6494  139.1049  165.8120 C.ar    1  UNL1        0.0180
     18 C         138.7755  138.1251  165.0866 C.ar    1  UNL1        0.0220
     19 C         138.8477  138.0188  163.5922 C.ar    1  UNL1        0.0990
     20 N         139.7939  138.8923  162.8230 N.ar    1  UNL1       -0.2410
     21 C         140.6679  139.8721  163.5483 C.ar    1  UNL1        0.1136
     22 C         142.9619  140.8624  165.6506 C.3     1  UNL1        0.0975
     23 C         143.4943  138.4975  166.5853 C.3     1  UNL1        0.0018
     24 C         143.6176  139.5220  165.4968 C.3     1  UNL1        0.0218
@<TRIPOS>BOND
     1    23    24    1
     2    24    22    1
     3    22    15    1
     4    15    16    1
     5    16    17   ar
     6    17    18   ar
     7    18    19   ar
     8    19    20   ar
     9    20    21   ar
    10    15     1    1
    11     1     2    2
    12     1     3    1
    13     3     4   ar
    14     4     5   ar
    15     5     6   ar
    16     6     7   ar
    17     7     8   ar
    18     1     9    1
    19     9    10   ar
    20    10    11   ar
    21    11    12   ar
    22    12    13   ar
    23    13    14   ar
    24    21    16   ar
    25     8     3   ar
    26    14     9   ar
