@<TRIPOS>MOLECULE
*****
 35 38 0 0 0
SMALL
GASTEIGER

@<TRIPOS>ATOM
      1 C         141.1656  138.4489  160.4891 C.3     1  UNL1        0.2358
      2 C         142.5609  138.0852  160.9023 C.3     1  UNL1        0.1700
      3 O         143.1452  136.7662  160.4909 O.3     1  UNL1       -0.3793
      4 H         142.4944  136.2738  159.9665 H       1  UNL1        0.2106
      5 C         143.3720  139.0403  161.7268 C.3     1  UNL1        0.1056
      6 N         141.7514  140.5780  165.6330 N.pl3   1  UNL1       -0.3047
      7 C         141.4489  141.3061  164.3569 C.3     1  UNL1        0.1081
      8 C         141.9891  140.7935  163.0549 C.3     1  UNL1        0.0939
      9 N         142.8318  139.5529  163.0289 N.3     1  UNL1       -0.2676
     10 C         143.1343  138.8248  164.3049 C.3     1  UNL1        0.0939
     11 C         142.5940  139.3374  165.6070 C.3     1  UNL1        0.1081
     12 C         139.5906  142.6284  170.8414 C.3     1  UNL1        0.0310
     13 C         140.1308  142.1158  169.5393 C.ar    1  UNL1       -0.0218
     14 C         140.2620  140.6391  169.3111 C.ar    1  UNL1       -0.0030
     15 C         140.8022  140.1265  168.0090 C.ar    1  UNL1        0.0142
     16 C         141.2112  141.0906  166.9351 C.ar    1  UNL1        0.0479
     17 C         141.0799  142.5673  167.1633 C.ar    1  UNL1        0.0142
     18 C         140.5397  143.0799  168.4654 C.ar    1  UNL1       -0.0030
     19 O         139.9925  137.7611  161.1223 O.3     1  UNL1       -0.4727
     20 C         139.4739  138.2312  162.4490 C.ar    1  UNL1        0.1413
     21 C         139.8368  137.4899  163.7015 C.ar    1  UNL1        0.0370
     22 C         139.3182  137.9600  165.0282 C.ar    1  UNL1        0.0031
     23 C         138.4368  139.1715  165.1024 C.ar    1  UNL1        0.0003
     24 C         138.0739  139.9128  163.8498 C.ar    1  UNL1        0.0059
     25 C         138.5925  139.4427  162.5231 C.ar    1  UNL1        0.0686
     26 C         138.2296  140.1840  161.2706 C.2     1  UNL1        0.1763
     27 O         137.1086  139.6902  160.4050 O.2     1  UNL1       -0.2912
     28 C         138.9879  141.4190  160.8838 C.3     1  UNL1        0.0739
     29 C         138.3926  142.7733  161.1324 C.3     1  UNL1        0.0345
     30 C         138.6181  143.4620  162.4457 C.ar    1  UNL1       -0.0217
     31 C         139.9085  144.1822  162.7030 C.ar    1  UNL1       -0.0043
     32 C         140.1340  144.8710  164.0163 C.ar    1  UNL1       -0.0003
     33 C         139.0692  144.8396  165.0723 C.ar    1  UNL1       -0.0000
     34 C         137.7788  144.1194  164.8150 C.ar    1  UNL1       -0.0003
     35 C         137.5532  143.4306  163.5017 C.ar    1  UNL1       -0.0043
@<TRIPOS>BOND
     1    12    13    1
     2    13    14   ar
     3    14    15   ar
     4    15    16   ar
     5    16     6    1
     6     6     7    1
     7     7     8    1
     8     8     9    1
     9     9     5    1
    10     5     2    1
    11     2     3    1
    12     2     1    1
    13     1    19    1
    14    19    20    1
    15    20    21   ar
    16    21    22   ar
    17    22    23   ar
    18    23    24   ar
    19    24    25   ar
    20    25    26    1
    21    26    27    2
    22    26    28    1
    23    28    29    1
    24    29    30    1
    25    30    31   ar
    26    31    32   ar
    27    32    33   ar
    28    33    34   ar
    29    34    35   ar
    30     9    10    1
    31    10    11    1
    32    16    17   ar
    33    17    18   ar
    34    18    13   ar
    35    11     6    1
    36    25    20   ar
    37    35    30   ar
    38     3     4    1
@<TRIPOS>MOLECULE
*****
 35 38 0 0 0
SMALL
GASTEIGER

@<TRIPOS>ATOM
      1 C         138.9711  141.8564  160.0344 C.3     1  UNL1        0.2358
      2 C         138.4831  140.4450  160.1761 C.3     1  UNL1        0.1700
      3 O         137.2953  139.9793  159.3872 O.3     1  UNL1       -0.3793
      4 H         136.9648  140.7086  158.8396 H       1  UNL1        0.2106
      5 C         139.1829  139.4994  161.1068 C.3     1  UNL1        0.1056
      6 N         139.7439  140.6033  165.4330 N.pl3   1  UNL1       -0.3047
      7 C         140.7456  141.0489  164.4093 C.3     1  UNL1        0.1081
      8 C         140.5586  140.6810  162.9672 C.3     1  UNL1        0.0939
      9 N         139.3699  139.8674  162.5489 N.3     1  UNL1       -0.2676
     10 C         138.3682  139.4218  163.5726 C.3     1  UNL1        0.0939
     11 C         138.5552  139.7897  165.0147 C.3     1  UNL1        0.1081
     12 C         140.4920  142.0751  171.2014 C.3     1  UNL1        0.0310
     13 C         140.3050  141.7071  169.7593 C.ar    1  UNL1       -0.0218
     14 C         140.7615  142.6444  168.6809 C.ar    1  UNL1       -0.0030
     15 C         140.5744  142.2765  167.2388 C.ar    1  UNL1        0.0142
     16 C         139.9309  140.9712  166.8751 C.ar    1  UNL1        0.0479
     17 C         139.4744  140.0340  167.9536 C.ar    1  UNL1        0.0142
     18 C         139.6615  140.4019  169.3957 C.ar    1  UNL1       -0.0030
     19 O         138.1647  142.9889  160.5978 O.3     1  UNL1       -0.4727
     20 C         138.4277  143.4759  161.9919 C.ar    1  UNL1        0.1413
     21 C         137.6004  142.9642  163.1337 C.ar    1  UNL1        0.0370
     22 C         137.8634  143.4513  164.5278 C.ar    1  UNL1        0.0031
     23 C         138.9537  144.4500  164.7802 C.ar    1  UNL1        0.0003
     24 C         139.7810  144.9618  163.6384 C.ar    1  UNL1        0.0059
     25 C         139.5181  144.4747  162.2442 C.ar    1  UNL1        0.0686
     26 C         140.3454  144.9864  161.1025 C.2     1  UNL1        0.1763
     27 O         139.6889  145.7175  159.9691 O.2     1  UNL1       -0.2912
     28 C         141.8292  144.7670  161.0940 C.3     1  UNL1        0.0739
     29 C         142.3817  143.3738  161.1553 C.3     1  UNL1        0.0345
     30 C         143.3519  142.9985  162.2359 C.ar    1  UNL1       -0.0217
     31 C         143.2746  143.6647  163.5777 C.ar    1  UNL1       -0.0043
     32 C         144.2449  143.2894  164.6583 C.ar    1  UNL1       -0.0003
     33 C         145.2923  142.2479  164.3973 C.ar    1  UNL1       -0.0000
     34 C         145.3696  141.5818  163.0555 C.ar    1  UNL1       -0.0003
     35 C         144.3994  141.9570  161.9749 C.ar    1  UNL1       -0.0043
@<TRIPOS>BOND
     1    12    13    1
     2    13    14   ar
     3    14    15   ar
     4    15    16   ar
     5    16     6    1
     6     6     7    1
     7     7     8    1
     8     8     9    1
     9     9     5    1
    10     5     2    1
    11     2     3    1
    12     2     1    1
    13     1    19    1
    14    19    20    1
    15    20    21   ar
    16    21    22   ar
    17    22    23   ar
    18    23    24   ar
    19    24    25   ar
    20    25    26    1
    21    26    27    2
    22    26    28    1
    23    28    29    1
    24    29    30    1
    25    30    31   ar
    26    31    32   ar
    27    32    33   ar
    28    33    34   ar
    29    34    35   ar
    30     9    10    1
    31    10    11    1
    32    16    17   ar
    33    17    18   ar
    34    18    13   ar
    35    11     6    1
    36    25    20   ar
    37    35    30   ar
    38     3     4    1
@<TRIPOS>MOLECULE
*****
 35 38 0 0 0
SMALL
GASTEIGER

@<TRIPOS>ATOM
      1 C         139.6627  144.2202  159.8482 C.3     1  UNL1        0.2358
      2 C         140.6565  145.1270  160.5115 C.3     1  UNL1        0.1700
      3 O         141.8983  145.5421  159.7796 O.3     1  UNL1       -0.3793
      4 H         141.9034  145.1393  158.8972 H       1  UNL1        0.2106
      5 C         140.4086  145.6187  161.9068 C.3     1  UNL1        0.1056
      6 N         141.1121  142.8873  165.4132 N.pl3   1  UNL1       -0.3047
      7 C         139.8800  143.7414  165.3631 C.3     1  UNL1        0.1081
      8 C         139.6455  144.6518  164.1943 C.3     1  UNL1        0.0939
      9 N         140.6431  144.7082  163.0756 N.3     1  UNL1       -0.2676
     10 C         141.8752  143.8542  163.1257 C.3     1  UNL1        0.0939
     11 C         142.1097  142.9437  164.2945 C.3     1  UNL1        0.1081
     12 C         142.0500  139.2456  170.0884 C.3     1  UNL1        0.0310
     13 C         141.8155  140.1560  168.9196 C.ar    1  UNL1       -0.0218
     14 C         140.5437  140.0520  168.1312 C.ar    1  UNL1       -0.0030
     15 C         140.3093  140.9624  166.9624 C.ar    1  UNL1        0.0142
     16 C         141.3466  141.9769  166.5820 C.ar    1  UNL1        0.0479
     17 C         142.6184  142.0809  167.3704 C.ar    1  UNL1        0.0142
     18 C         142.8529  141.1705  168.5392 C.ar    1  UNL1       -0.0030
     19 O         139.7704  142.7342  160.0221 O.3     1  UNL1       -0.4727
     20 C         139.2258  142.0823  161.2585 C.ar    1  UNL1        0.1413
     21 C         137.9619  142.5955  161.8822 C.ar    1  UNL1        0.0370
     22 C         137.4173  141.9436  163.1185 C.ar    1  UNL1        0.0031
     23 C         138.1367  140.7786  163.7311 C.ar    1  UNL1        0.0003
     24 C         139.4007  140.2654  163.1074 C.ar    1  UNL1        0.0059
     25 C         139.9453  140.9173  161.8710 C.ar    1  UNL1        0.0686
     26 C         141.2092  140.4042  161.2473 C.2     1  UNL1        0.1763
     27 O         142.3624  141.3349  161.0147 O.2     1  UNL1       -0.2912
     28 C         141.3201  138.9604  160.8562 C.3     1  UNL1        0.0739
     29 C         142.3520  138.0850  161.5035 C.3     1  UNL1        0.0345
     30 C         142.7840  138.3527  162.9147 C.ar    1  UNL1       -0.0217
     31 C         144.0760  139.0667  163.1809 C.ar    1  UNL1       -0.0043
     32 C         144.5080  139.3344  164.5923 C.ar    1  UNL1       -0.0003
     33 C         143.6480  138.8880  165.7373 C.ar    1  UNL1       -0.0000
     34 C         142.3561  138.1739  165.4711 C.ar    1  UNL1       -0.0003
     35 C         141.9240  137.9063  164.0598 C.ar    1  UNL1       -0.0043
@<TRIPOS>BOND
     1    12    13    1
     2    13    14   ar
     3    14    15   ar
     4    15    16   ar
     5    16     6    1
     6     6     7    1
     7     7     8    1
     8     8     9    1
     9     9     5    1
    10     5     2    1
    11     2     3    1
    12     2     1    1
    13     1    19    1
    14    19    20    1
    15    20    21   ar
    16    21    22   ar
    17    22    23   ar
    18    23    24   ar
    19    24    25   ar
    20    25    26    1
    21    26    27    2
    22    26    28    1
    23    28    29    1
    24    29    30    1
    25    30    31   ar
    26    31    32   ar
    27    32    33   ar
    28    33    34   ar
    29    34    35   ar
    30     9    10    1
    31    10    11    1
    32    16    17   ar
    33    17    18   ar
    34    18    13   ar
    35    11     6    1
    36    25    20   ar
    37    35    30   ar
    38     3     4    1
@<TRIPOS>MOLECULE
*****
 35 38 0 0 0
SMALL
GASTEIGER

@<TRIPOS>ATOM
      1 C         140.0110  138.4722  161.0880 C.3     1  UNL1        0.2358
      2 C         138.6911  138.5684  161.7943 C.3     1  UNL1        0.1700
      3 O         137.7958  137.3677  161.8774 O.3     1  UNL1       -0.3793
      4 H         138.2168  136.6186  161.4275 H       1  UNL1        0.2106
      5 C         138.2666  139.8651  162.4173 C.3     1  UNL1        0.1056
      6 N         140.3934  141.4090  166.0701 N.pl3   1  UNL1       -0.3047
      7 C         139.2444  140.4563  166.2179 C.3     1  UNL1        0.1081
      8 C         138.5354  139.9416  165.0003 C.3     1  UNL1        0.0939
      9 N         138.9755  140.3797  163.6349 N.3     1  UNL1       -0.2676
     10 C         140.1246  141.3325  163.4871 C.3     1  UNL1        0.0939
     11 C         140.8335  141.8471  164.7047 C.3     1  UNL1        0.1081
     12 C         143.2292  143.4676  170.9405 C.3     1  UNL1        0.0310
     13 C         142.5202  142.9530  169.7229 C.ar    1  UNL1       -0.0218
     14 C         143.2979  142.2821  168.6297 C.ar    1  UNL1       -0.0030
     15 C         142.5890  141.7674  167.4121 C.ar    1  UNL1        0.0142
     16 C         141.1024  141.9237  167.2877 C.ar    1  UNL1        0.0479
     17 C         140.3247  142.5946  168.3808 C.ar    1  UNL1        0.0142
     18 C         141.0336  143.1093  169.5984 C.ar    1  UNL1       -0.0030
     19 O         141.1148  137.6406  161.6713 O.3     1  UNL1       -0.4727
     20 C         141.8958  138.1488  162.8468 C.ar    1  UNL1        0.1413
     21 C         141.5063  137.7441  164.2376 C.ar    1  UNL1        0.0370
     22 C         142.2872  138.2523  165.4131 C.ar    1  UNL1        0.0031
     23 C         143.4577  139.1653  165.1978 C.ar    1  UNL1        0.0003
     24 C         143.8473  139.5701  163.8069 C.ar    1  UNL1        0.0059
     25 C         143.0663  139.0618  162.6314 C.ar    1  UNL1        0.0686
     26 C         143.4558  139.4666  161.2406 C.2     1  UNL1        0.1763
     27 O         144.2048  138.5084  160.3626 O.2     1  UNL1       -0.2912
     28 C         143.0963  140.8296  160.7277 C.3     1  UNL1        0.0739
     29 C         143.9737  142.0049  161.0426 C.3     1  UNL1        0.0345
     30 C         143.5142  143.0422  162.0238 C.ar    1  UNL1       -0.0217
     31 C         142.2847  143.8525  161.7380 C.ar    1  UNL1       -0.0043
     32 C         141.8252  144.8899  162.7193 C.ar    1  UNL1       -0.0003
     33 C         142.5953  145.1169  163.9863 C.ar    1  UNL1       -0.0000
     34 C         143.8248  144.3065  164.2722 C.ar    1  UNL1       -0.0003
     35 C         144.2843  143.2692  163.2910 C.ar    1  UNL1       -0.0043
@<TRIPOS>BOND
     1    12    13    1
     2    13    14   ar
     3    14    15   ar
     4    15    16   ar
     5    16     6    1
     6     6     7    1
     7     7     8    1
     8     8     9    1
     9     9     5    1
    10     5     2    1
    11     2     3    1
    12     2     1    1
    13     1    19    1
    14    19    20    1
    15    20    21   ar
    16    21    22   ar
    17    22    23   ar
    18    23    24   ar
    19    24    25   ar
    20    25    26    1
    21    26    27    2
    22    26    28    1
    23    28    29    1
    24    29    30    1
    25    30    31   ar
    26    31    32   ar
    27    32    33   ar
    28    33    34   ar
    29    34    35   ar
    30     9    10    1
    31    10    11    1
    32    16    17   ar
    33    17    18   ar
    34    18    13   ar
    35    11     6    1
    36    25    20   ar
    37    35    30   ar
    38     3     4    1
@<TRIPOS>MOLECULE
*****
 35 38 0 0 0
SMALL
GASTEIGER

@<TRIPOS>ATOM
      1 C         139.4283  138.3312  160.5662 C.3     1  UNL1        0.2358
      2 C         139.3894  139.6984  159.9505 C.3     1  UNL1        0.1700
      3 O         139.9447  139.9174  158.5744 O.3     1  UNL1       -0.3793
      4 H         140.2873  139.0791  158.2268 H       1  UNL1        0.2106
      5 C         138.7953  140.8468  160.7110 C.3     1  UNL1        0.1056
      6 N         139.6077  141.2899  165.1148 N.pl3   1  UNL1       -0.3047
      7 C         138.2682  140.8060  164.6442 C.3     1  UNL1        0.1081
      8 C         137.9974  140.6583  163.1763 C.3     1  UNL1        0.0939
      9 N         139.0661  140.9945  162.1789 N.3     1  UNL1       -0.2676
     10 C         140.4056  141.4783  162.6495 C.3     1  UNL1        0.0939
     11 C         140.6764  141.6260  164.1174 C.3     1  UNL1        0.1081
     12 C         140.6909  141.8807  170.9866 C.3     1  UNL1        0.0310
     13 C         140.4201  141.7330  169.5186 C.ar    1  UNL1       -0.0218
     14 C         140.7365  142.8598  168.5805 C.ar    1  UNL1       -0.0030
     15 C         140.4657  142.7121  167.1126 C.ar    1  UNL1        0.0142
     16 C         139.8785  141.4376  166.5827 C.ar    1  UNL1        0.0479
     17 C         139.5622  140.3107  167.5209 C.ar    1  UNL1        0.0142
     18 C         139.8330  140.4584  168.9888 C.ar    1  UNL1       -0.0030
     19 O         140.7232  137.7779  161.0830 O.3     1  UNL1       -0.4727
     20 C         141.0770  137.9271  162.5330 C.ar    1  UNL1        0.1413
     21 C         140.0627  137.6038  163.5897 C.ar    1  UNL1        0.0370
     22 C         140.4165  137.7531  165.0397 C.ar    1  UNL1        0.0031
     23 C         141.7847  138.2257  165.4330 C.ar    1  UNL1        0.0003
     24 C         142.7991  138.5490  164.3764 C.ar    1  UNL1        0.0059
     25 C         142.4453  138.3997  162.9263 C.ar    1  UNL1        0.0686
     26 C         143.4596  138.7230  161.8697 C.2     1  UNL1        0.1763
     27 O         144.1637  137.6162  161.1422 O.2     1  UNL1       -0.2912
     28 C         143.7699  140.1532  161.5405 C.3     1  UNL1        0.0739
     29 C         144.8530  140.8762  162.2849 C.3     1  UNL1        0.0345
     30 C         144.5369  142.1397  163.0290 C.ar    1  UNL1       -0.0217
     31 C         144.2650  143.4068  162.2737 C.ar    1  UNL1       -0.0043
     32 C         143.9489  144.6703  163.0179 C.ar    1  UNL1       -0.0003
     33 C         143.9047  144.6667  164.5172 C.ar    1  UNL1       -0.0000
     34 C         144.1767  143.3995  165.2724 C.ar    1  UNL1       -0.0003
     35 C         144.4928  142.1360  164.5284 C.ar    1  UNL1       -0.0043
@<TRIPOS>BOND
     1    12    13    1
     2    13    14   ar
     3    14    15   ar
     4    15    16   ar
     5    16     6    1
     6     6     7    1
     7     7     8    1
     8     8     9    1
     9     9     5    1
    10     5     2    1
    11     2     3    1
    12     2     1    1
    13     1    19    1
    14    19    20    1
    15    20    21   ar
    16    21    22   ar
    17    22    23   ar
    18    23    24   ar
    19    24    25   ar
    20    25    26    1
    21    26    27    2
    22    26    28    1
    23    28    29    1
    24    29    30    1
    25    30    31   ar
    26    31    32   ar
    27    32    33   ar
    28    33    34   ar
    29    34    35   ar
    30     9    10    1
    31    10    11    1
    32    16    17   ar
    33    17    18   ar
    34    18    13   ar
    35    11     6    1
    36    25    20   ar
    37    35    30   ar
    38     3     4    1
@<TRIPOS>MOLECULE
*****
 35 38 0 0 0
SMALL
GASTEIGER

@<TRIPOS>ATOM
      1 C         141.5738  144.8462  159.1736 C.3     1  UNL1        0.2358
      2 C         142.1295  143.9376  158.1174 C.3     1  UNL1        0.1700
      3 O         142.8460  144.5148  156.9326 O.3     1  UNL1       -0.3793
      4 H         142.8614  145.4821  157.0038 H       1  UNL1        0.2106
      5 C         141.9688  142.4518  158.2459 C.3     1  UNL1        0.1056
      6 N         140.1505  140.6991  161.9703 N.pl3   1  UNL1       -0.3047
      7 C         139.2654  141.1967  160.8663 C.3     1  UNL1        0.1081
      8 C         139.8715  141.7810  159.6248 C.3     1  UNL1        0.0939
      9 N         141.3627  141.8676  159.4874 N.3     1  UNL1       -0.2676
     10 C         142.2477  141.3699  160.5914 C.3     1  UNL1        0.0939
     11 C         141.6416  140.7857  161.8329 C.3     1  UNL1        0.1081
     12 C         137.7260  138.3621  166.9363 C.3     1  UNL1        0.0310
     13 C         138.3321  138.9464  165.6948 C.ar    1  UNL1       -0.0218
     14 C         138.9163  138.0436  164.6490 C.ar    1  UNL1       -0.0030
     15 C         139.5224  138.6279  163.4075 C.ar    1  UNL1        0.0142
     16 C         139.5443  140.1148  163.2118 C.ar    1  UNL1        0.0479
     17 C         138.9602  141.0176  164.2576 C.ar    1  UNL1        0.0142
     18 C         138.3540  140.4333  165.4991 C.ar    1  UNL1       -0.0030
     19 O         142.1675  144.8463  160.5511 O.3     1  UNL1       -0.4727
     20 C         141.2731  144.7775  161.7533 C.ar    1  UNL1        0.1413
     21 C         139.7974  145.0010  161.6040 C.ar    1  UNL1        0.0370
     22 C         138.9030  144.9323  162.8062 C.ar    1  UNL1        0.0031
     23 C         139.4842  144.6400  164.1577 C.ar    1  UNL1        0.0003
     24 C         140.9600  144.4164  164.3071 C.ar    1  UNL1        0.0059
     25 C         141.8544  144.4852  163.1049 C.ar    1  UNL1        0.0686
     26 C         143.3301  144.2616  163.2542 C.2     1  UNL1        0.1763
     27 O         144.2984  145.3040  162.7791 O.2     1  UNL1       -0.2912
     28 C         143.8374  142.9956  163.8786 C.3     1  UNL1        0.0739
     29 C         143.9317  142.8810  165.3713 C.3     1  UNL1        0.0345
     30 C         143.0888  141.8776  166.1012 C.ar    1  UNL1       -0.0217
     31 C         142.5041  142.2209  167.4392 C.ar    1  UNL1       -0.0043
     32 C         141.6612  141.2175  168.1690 C.ar    1  UNL1       -0.0003
     33 C         141.4030  139.8708  167.5609 C.ar    1  UNL1       -0.0000
     34 C         141.9877  139.5276  166.2229 C.ar    1  UNL1       -0.0003
     35 C         142.8306  140.5309  165.4930 C.ar    1  UNL1       -0.0043
@<TRIPOS>BOND
     1    12    13    1
     2    13    14   ar
     3    14    15   ar
     4    15    16   ar
     5    16     6    1
     6     6     7    1
     7     7     8    1
     8     8     9    1
     9     9     5    1
    10     5     2    1
    11     2     3    1
    12     2     1    1
    13     1    19    1
    14    19    20    1
    15    20    21   ar
    16    21    22   ar
    17    22    23   ar
    18    23    24   ar
    19    24    25   ar
    20    25    26    1
    21    26    27    2
    22    26    28    1
    23    28    29    1
    24    29    30    1
    25    30    31   ar
    26    31    32   ar
    27    32    33   ar
    28    33    34   ar
    29    34    35   ar
    30     9    10    1
    31    10    11    1
    32    16    17   ar
    33    17    18   ar
    34    18    13   ar
    35    11     6    1
    36    25    20   ar
    37    35    30   ar
    38     3     4    1
@<TRIPOS>MOLECULE
*****
 35 38 0 0 0
SMALL
GASTEIGER

@<TRIPOS>ATOM
      1 C         142.1990  144.0661  161.1388 C.3     1  UNL1        0.2358
      2 C         143.4017  143.3035  160.6675 C.3     1  UNL1        0.1700
      3 O         143.8218  143.3796  159.2295 O.3     1  UNL1       -0.3793
      4 H         143.2136  143.9596  158.7452 H       1  UNL1        0.2106
      5 C         144.1842  142.4649  161.6341 C.3     1  UNL1        0.1056
      6 N         142.4103  141.3877  165.6270 N.pl3   1  UNL1       -0.3047
      7 C         143.3135  142.5789  165.5044 C.3     1  UNL1        0.1081
      8 C         143.9048  142.9380  164.1734 C.3     1  UNL1        0.0939
      9 N         143.5929  142.1058  162.9651 N.3     1  UNL1       -0.2676
     10 C         142.6896  140.9146  163.0877 C.3     1  UNL1        0.0939
     11 C         142.0983  140.5555  164.4186 C.3     1  UNL1        0.1081
     12 C         140.0451  139.9513  170.9508 C.3     1  UNL1        0.0310
     13 C         140.6364  140.3104  169.6198 C.ar    1  UNL1       -0.0218
     14 C         141.7634  139.4970  169.0558 C.ar    1  UNL1       -0.0030
     15 C         142.3547  139.8561  167.7249 C.ar    1  UNL1        0.0142
     16 C         141.8190  141.0286  166.9579 C.ar    1  UNL1        0.0479
     17 C         140.6920  141.8420  167.5220 C.ar    1  UNL1        0.0142
     18 C         140.1007  141.4829  168.8529 C.ar    1  UNL1       -0.0030
     19 O         140.8850  143.3631  161.3102 O.3     1  UNL1       -0.4727
     20 C         140.0086  143.6872  162.4836 C.ar    1  UNL1        0.1413
     21 C         140.5375  144.5328  163.6039 C.ar    1  UNL1        0.0370
     22 C         139.6610  144.8569  164.7773 C.ar    1  UNL1        0.0031
     23 C         138.2556  144.3354  164.8302 C.ar    1  UNL1        0.0003
     24 C         137.7266  143.4899  163.7099 C.ar    1  UNL1        0.0059
     25 C         138.6031  143.1658  162.5365 C.ar    1  UNL1        0.0686
     26 C         138.0741  142.3202  161.4162 C.2     1  UNL1        0.1763
     27 O         137.8713  142.9190  160.0559 O.2     1  UNL1       -0.2912
     28 C         137.7480  140.8759  161.6561 C.3     1  UNL1        0.0739
     29 C         138.8024  139.9456  162.1783 C.3     1  UNL1        0.0345
     30 C         138.6723  139.3606  163.5533 C.ar    1  UNL1       -0.0217
     31 C         138.2417  140.2273  164.6994 C.ar    1  UNL1       -0.0043
     32 C         138.1116  139.6423  166.0745 C.ar    1  UNL1       -0.0003
     33 C         138.4121  138.1906  166.3035 C.ar    1  UNL1       -0.0000
     34 C         138.8427  137.3240  165.1574 C.ar    1  UNL1       -0.0003
     35 C         138.9728  137.9089  163.7824 C.ar    1  UNL1       -0.0043
@<TRIPOS>BOND
     1    12    13    1
     2    13    14   ar
     3    14    15   ar
     4    15    16   ar
     5    16     6    1
     6     6     7    1
     7     7     8    1
     8     8     9    1
     9     9     5    1
    10     5     2    1
    11     2     3    1
    12     2     1    1
    13     1    19    1
    14    19    20    1
    15    20    21   ar
    16    21    22   ar
    17    22    23   ar
    18    23    24   ar
    19    24    25   ar
    20    25    26    1
    21    26    27    2
    22    26    28    1
    23    28    29    1
    24    29    30    1
    25    30    31   ar
    26    31    32   ar
    27    32    33   ar
    28    33    34   ar
    29    34    35   ar
    30     9    10    1
    31    10    11    1
    32    16    17   ar
    33    17    18   ar
    34    18    13   ar
    35    11     6    1
    36    25    20   ar
    37    35    30   ar
    38     3     4    1
@<TRIPOS>MOLECULE
*****
 35 38 0 0 0
SMALL
GASTEIGER

@<TRIPOS>ATOM
      1 C         138.7272  139.6405  167.2842 C.3     1  UNL1        0.2358
      2 C         138.0045  138.4126  166.8151 C.3     1  UNL1        0.1700
      3 O         136.8531  137.8708  167.6093 O.3     1  UNL1       -0.3793
      4 H         136.7084  138.4276  168.3902 H       1  UNL1        0.2106
      5 C         138.4331  137.7267  165.5519 C.3     1  UNL1        0.1056
      6 N         140.8725  139.9559  162.4974 N.pl3   1  UNL1       -0.3047
      7 C         139.4256  140.2978  162.6963 C.3     1  UNL1        0.1081
      8 C         138.6125  139.5547  163.7145 C.3     1  UNL1        0.0939
      9 N         139.2462  138.4698  164.5337 N.3     1  UNL1       -0.2676
     10 C         140.6931  138.1279  164.3348 C.3     1  UNL1        0.0939
     11 C         141.5062  138.8709  163.3166 C.3     1  UNL1        0.1081
     12 C         144.1249  142.9281  158.4246 C.3     1  UNL1        0.0310
     13 C         143.3118  142.1851  159.4428 C.ar    1  UNL1       -0.0218
     14 C         142.0412  142.7833  159.9696 C.ar    1  UNL1       -0.0030
     15 C         141.2281  142.0402  160.9878 C.ar    1  UNL1        0.0142
     16 C         141.6856  140.6989  161.4792 C.ar    1  UNL1        0.0479
     17 C         142.9562  140.1007  160.9524 C.ar    1  UNL1        0.0142
     18 C         143.7693  140.8438  159.9342 C.ar    1  UNL1       -0.0030
     19 O         139.6731  139.5563  168.4454 O.3     1  UNL1       -0.4727
     20 C         140.3264  140.7996  168.9722 C.ar    1  UNL1        0.1413
     21 C         139.5432  141.7561  169.8216 C.ar    1  UNL1        0.0370
     22 C         140.1965  142.9994  170.3484 C.ar    1  UNL1        0.0031
     23 C         141.6330  143.2861  170.0257 C.ar    1  UNL1        0.0003
     24 C         142.4163  142.3295  169.1763 C.ar    1  UNL1        0.0059
     25 C         141.7630  141.0863  168.6495 C.ar    1  UNL1        0.0686
     26 C         142.5462  140.1297  167.8001 C.2     1  UNL1        0.1763
     27 O         143.0702  138.8556  168.3936 O.2     1  UNL1       -0.2912
     28 C         142.8055  140.4473  166.3572 C.3     1  UNL1        0.0739
     29 C         142.1362  141.6272  165.7169 C.3     1  UNL1        0.0345
     30 C         142.8550  142.4167  164.6635 C.ar    1  UNL1       -0.0217
     31 C         144.1269  141.8895  164.0683 C.ar    1  UNL1       -0.0043
     32 C         144.8458  142.6791  163.0148 C.ar    1  UNL1       -0.0003
     33 C         144.2927  143.9959  162.5565 C.ar    1  UNL1       -0.0000
     34 C         143.0207  144.5232  163.1517 C.ar    1  UNL1       -0.0003
     35 C         142.3019  143.7336  164.2051 C.ar    1  UNL1       -0.0043
@<TRIPOS>BOND
     1    12    13    1
     2    13    14   ar
     3    14    15   ar
     4    15    16   ar
     5    16     6    1
     6     6     7    1
     7     7     8    1
     8     8     9    1
     9     9     5    1
    10     5     2    1
    11     2     3    1
    12     2     1    1
    13     1    19    1
    14    19    20    1
    15    20    21   ar
    16    21    22   ar
    17    22    23   ar
    18    23    24   ar
    19    24    25   ar
    20    25    26    1
    21    26    27    2
    22    26    28    1
    23    28    29    1
    24    29    30    1
    25    30    31   ar
    26    31    32   ar
    27    32    33   ar
    28    33    34   ar
    29    34    35   ar
    30     9    10    1
    31    10    11    1
    32    16    17   ar
    33    17    18   ar
    34    18    13   ar
    35    11     6    1
    36    25    20   ar
    37    35    30   ar
    38     3     4    1
@<TRIPOS>MOLECULE
*****
 35 38 0 0 0
SMALL
GASTEIGER

@<TRIPOS>ATOM
      1 C         142.8322  139.2234  160.2146 C.3     1  UNL1        0.2358
      2 C         142.8763  138.0666  161.1685 C.3     1  UNL1        0.1700
      3 O         144.1297  137.2538  161.3041 O.3     1  UNL1       -0.3793
      4 H         144.8100  137.6068  160.7096 H       1  UNL1        0.2106
      5 C         141.6671  137.7226  161.9867 C.3     1  UNL1        0.1056
      6 N         140.8080  139.9728  165.7878 N.pl3   1  UNL1       -0.3047
      7 C         140.0555  140.3046  164.5334 C.3     1  UNL1        0.1081
      8 C         140.3419  139.5546  163.2663 C.3     1  UNL1        0.0939
      9 N         141.3807  138.4727  163.2537 N.3     1  UNL1       -0.2676
     10 C         142.1333  138.1409  164.5081 C.3     1  UNL1        0.0939
     11 C         141.8469  138.8909  165.7751 C.3     1  UNL1        0.1081
     12 C         139.6624  142.9730  170.8560 C.3     1  UNL1        0.0310
     13 C         139.9488  142.2230  169.5889 C.ar    1  UNL1       -0.0218
     14 C         140.6301  142.9147  168.4456 C.ar    1  UNL1       -0.0030
     15 C         140.9165  142.1646  167.1785 C.ar    1  UNL1        0.0142
     16 C         140.5216  140.7229  167.0548 C.ar    1  UNL1        0.0479
     17 C         139.8403  140.0312  168.1982 C.ar    1  UNL1        0.0142
     18 C         139.5539  140.7812  169.4652 C.ar    1  UNL1       -0.0030
     19 O         143.6013  140.4751  160.5176 O.3     1  UNL1       -0.4727
     20 C         143.6575  140.9994  161.9219 C.ar    1  UNL1        0.1413
     21 C         144.6140  140.3988  162.9089 C.ar    1  UNL1        0.0370
     22 C         144.6702  140.9231  164.3132 C.ar    1  UNL1        0.0031
     23 C         143.7699  142.0479  164.7304 C.ar    1  UNL1        0.0003
     24 C         142.8132  142.6485  163.7434 C.ar    1  UNL1        0.0059
     25 C         142.7570  142.1242  162.3391 C.ar    1  UNL1        0.0686
     26 C         141.8005  142.7248  161.3521 C.2     1  UNL1        0.1763
     27 O         140.7783  141.8595  160.6764 O.2     1  UNL1       -0.2912
     28 C         141.8661  144.1906  161.0407 C.3     1  UNL1        0.0739
     29 C         140.7433  145.0959  161.4529 C.3     1  UNL1        0.0345
     30 C         139.8169  144.6860  162.5590 C.ar    1  UNL1       -0.0217
     31 C         140.1307  145.0598  163.9774 C.ar    1  UNL1       -0.0043
     32 C         139.2042  144.6499  165.0836 C.ar    1  UNL1       -0.0003
     33 C         137.9640  143.8662  164.7715 C.ar    1  UNL1       -0.0000
     34 C         137.6501  143.4924  163.3531 C.ar    1  UNL1       -0.0003
     35 C         138.5765  143.9023  162.2469 C.ar    1  UNL1       -0.0043
@<TRIPOS>BOND
     1    12    13    1
     2    13    14   ar
     3    14    15   ar
     4    15    16   ar
     5    16     6    1
     6     6     7    1
     7     7     8    1
     8     8     9    1
     9     9     5    1
    10     5     2    1
    11     2     3    1
    12     2     1    1
    13     1    19    1
    14    19    20    1
    15    20    21   ar
    16    21    22   ar
    17    22    23   ar
    18    23    24   ar
    19    24    25   ar
    20    25    26    1
    21    26    27    2
    22    26    28    1
    23    28    29    1
    24    29    30    1
    25    30    31   ar
    26    31    32   ar
    27    32    33   ar
    28    33    34   ar
    29    34    35   ar
    30     9    10    1
    31    10    11    1
    32    16    17   ar
    33    17    18   ar
    34    18    13   ar
    35    11     6    1
    36    25    20   ar
    37    35    30   ar
    38     3     4    1
