@<TRIPOS>MOLECULE
*****
 33 37 0 0 0
SMALL
GASTEIGER

@<TRIPOS>ATOM
      1 C         138.5383  138.9763  165.5404 C.ar    1  UNL1        0.0084
      2 C         139.0528  137.7111  164.9203 C.ar    1  UNL1       -0.0019
      3 C         139.1024  137.5737  163.4275 C.ar    1  UNL1       -0.0032
      4 C         138.6377  138.7017  162.5547 C.ar    1  UNL1       -0.0062
      5 C         138.1232  139.9669  163.1747 C.ar    1  UNL1       -0.0032
      6 C         138.0736  140.1042  164.6677 C.ar    1  UNL1       -0.0019
      7 O         137.3927  138.4479  167.8117 O.3     1  UNL1       -0.3756
      8 C         138.4887  139.1137  167.0333 C.3     1  UNL1        0.1551
      9 H         136.8057  137.9734  167.2024 H       1  UNL1        0.2112
     10 C         139.5349  139.9167  167.7478 C.ar    1  UNL1        0.0108
     11 C         139.3156  140.3371  169.1709 C.ar    1  UNL1        0.0008
     12 C         140.3618  141.1402  169.8854 C.ar    1  UNL1        0.0317
     13 C         141.6273  141.5228  169.1769 C.ar    1  UNL1        0.1674
     14 F         142.6735  142.3259  169.8914 F       1  UNL1       -0.2018
     15 C         141.8466  141.1025  167.7537 C.ar    1  UNL1        0.1672
     16 F         143.1121  141.4851  167.0452 F       1  UNL1       -0.2018
     17 C         140.8004  140.2994  167.0392 C.ar    1  UNL1        0.0303
     18 C         138.6873  138.5643  161.0618 C.3     1  UNL1        0.0991
     19 N         139.0475  139.7464  160.2114 N.3     1  UNL1       -0.2688
     20 C         138.0525  140.2980  159.2338 C.3     1  UNL1        0.0751
     21 C         138.4127  141.4800  158.3835 C.3     1  UNL1        0.0489
     22 C         139.7679  142.1104  158.5108 C.3     1  UNL1        0.1157
     23 C         140.7628  141.5588  159.4884 C.3     1  UNL1        0.0489
     24 C         140.4026  140.3768  160.3387 C.3     1  UNL1        0.0751
     25 O         141.0773  142.8420  158.5271 O.3     1  UNL1       -0.3496
     26 C         141.0006  143.9522  157.5212 C.3     1  UNL1        0.1687
     27 C         139.6437  143.9067  156.8833 C.ar    1  UNL1        0.0108
     28 C         139.0035  144.7547  155.8245 C.ar    1  UNL1        0.0476
     29 C         137.6015  144.4645  155.3774 C.ar    1  UNL1        0.2221
     30 F         136.9612  145.3125  154.3186 F       1  UNL1       -0.1832
     31 N         136.8396  143.3262  155.9889 N.ar    1  UNL1       -0.2167
     32 C         137.4798  142.4782  157.0477 C.ar    1  UNL1        0.0990
     33 C         138.8819  142.7685  157.4949 C.ar    1  UNL1        0.0198
@<TRIPOS>BOND
     1     7     8    1
     2     8     1    1
     3     1     2   ar
     4     2     3   ar
     5     3     4   ar
     6     4    18    1
     7    18    19    1
     8    19    20    1
     9    20    21    1
    10    21    22    1
    11    22    23    1
    12    23    24    1
    13    22    25    1
    14    25    26    1
    15    26    27    1
    16    27    28   ar
    17    28    29   ar
    18    29    30    1
    19    29    31   ar
    20    31    32   ar
    21    32    33   ar
    22     4     5   ar
    23     5     6   ar
    24     8    10    1
    25    10    11   ar
    26    11    12   ar
    27    12    13   ar
    28    13    14    1
    29    13    15   ar
    30    15    16    1
    31    15    17   ar
    32     6     1   ar
    33    17    10   ar
    34    24    19    1
    35    33    27   ar
    36    33    22    1
    37     7     9    1
@<TRIPOS>MOLECULE
*****
 33 37 0 0 0
SMALL
GASTEIGER

@<TRIPOS>ATOM
      1 C         142.3023  136.7787  156.9499 C.ar    1  UNL1        0.0084
      2 C         140.9035  136.9471  156.4351 C.ar    1  UNL1       -0.0019
      3 C         139.9360  137.8292  157.1671 C.ar    1  UNL1       -0.0032
      4 C         140.3673  138.5431  158.4139 C.ar    1  UNL1       -0.0062
      5 C         141.7661  138.3747  158.9287 C.ar    1  UNL1       -0.0032
      6 C         142.7336  137.4925  158.1966 C.ar    1  UNL1       -0.0019
      7 O         144.3345  136.5055  155.3544 O.3     1  UNL1       -0.3756
      8 C         143.2698  135.8966  156.2179 C.3     1  UNL1        0.1551
      9 H         144.2577  137.4722  155.3796 H       1  UNL1        0.2112
     10 C         143.1726  134.4056  156.3495 C.ar    1  UNL1        0.0108
     11 C         142.1155  133.6535  155.5965 C.ar    1  UNL1        0.0008
     12 C         142.0183  132.1625  155.7281 C.ar    1  UNL1        0.0317
     13 C         142.9782  131.4234  156.6125 C.ar    1  UNL1        0.1674
     14 F         142.8810  129.9324  156.7441 F       1  UNL1       -0.2018
     15 C         144.0354  132.1755  157.3655 C.ar    1  UNL1        0.1672
     16 F         144.9953  131.4364  158.2500 F       1  UNL1       -0.2018
     17 C         144.1326  133.6665  157.2340 C.ar    1  UNL1        0.0303
     18 C         139.3998  139.4252  159.1458 C.3     1  UNL1        0.0991
     19 N         139.3257  139.3767  160.6433 N.3     1  UNL1       -0.2688
     20 C         139.8289  140.5320  161.4569 C.3     1  UNL1        0.0751
     21 C         139.7548  140.4834  162.9542 C.3     1  UNL1        0.0489
     22 C         139.1773  139.2796  163.6379 C.3     1  UNL1        0.1157
     23 C         138.6741  138.1244  162.8243 C.3     1  UNL1        0.0489
     24 C         138.7483  138.1729  161.3270 C.3     1  UNL1        0.0751
     25 O         138.6290  138.1492  164.4574 O.3     1  UNL1       -0.3496
     26 C         138.7512  138.5240  165.9048 C.3     1  UNL1        0.1687
     27 C         139.3752  139.8860  165.9798 C.ar    1  UNL1        0.0108
     28 C         139.7375  140.7614  167.1427 C.ar    1  UNL1        0.0476
     29 C         140.3632  142.1036  166.9048 C.ar    1  UNL1        0.2221
     30 F         140.7256  142.9790  168.0677 F       1  UNL1       -0.1832
     31 N         140.6266  142.5707  165.5038 N.ar    1  UNL1       -0.2167
     32 C         140.2642  141.6954  164.3409 C.ar    1  UNL1        0.0990
     33 C         139.6385  140.3530  164.5789 C.ar    1  UNL1        0.0198
@<TRIPOS>BOND
     1     7     8    1
     2     8     1    1
     3     1     2   ar
     4     2     3   ar
     5     3     4   ar
     6     4    18    1
     7    18    19    1
     8    19    20    1
     9    20    21    1
    10    21    22    1
    11    22    23    1
    12    23    24    1
    13    22    25    1
    14    25    26    1
    15    26    27    1
    16    27    28   ar
    17    28    29   ar
    18    29    30    1
    19    29    31   ar
    20    31    32   ar
    21    32    33   ar
    22     4     5   ar
    23     5     6   ar
    24     8    10    1
    25    10    11   ar
    26    11    12   ar
    27    12    13   ar
    28    13    14    1
    29    13    15   ar
    30    15    16    1
    31    15    17   ar
    32     6     1   ar
    33    17    10   ar
    34    24    19    1
    35    33    27   ar
    36    33    22    1
    37     7     9    1
@<TRIPOS>MOLECULE
*****
 33 37 0 0 0
SMALL
GASTEIGER

@<TRIPOS>ATOM
      1 C         139.6542  139.3496  166.7844 C.ar    1  UNL1        0.0084
      2 C         138.6042  138.4747  166.1661 C.ar    1  UNL1       -0.0019
      3 C         138.7910  137.9484  164.7740 C.ar    1  UNL1       -0.0032
      4 C         140.0279  138.2969  164.0001 C.ar    1  UNL1       -0.0062
      5 C         141.0778  139.1718  164.6183 C.ar    1  UNL1       -0.0032
      6 C         140.8909  139.6981  166.0105 C.ar    1  UNL1       -0.0019
      7 O         138.2431  139.5058  168.9603 O.3     1  UNL1       -0.3756
      8 C         139.4673  139.8760  168.1765 C.3     1  UNL1        0.1551
      9 H         137.6798  138.9251  168.4251 H       1  UNL1        0.2112
     10 C         140.5047  140.7725  168.7849 C.ar    1  UNL1        0.0108
     11 C         141.8750  140.2399  169.0822 C.ar    1  UNL1        0.0008
     12 C         142.9124  141.1365  169.6906 C.ar    1  UNL1        0.0317
     13 C         142.5794  142.5656  170.0016 C.ar    1  UNL1        0.1674
     14 F         143.6168  143.4621  170.6100 F       1  UNL1       -0.2018
     15 C         141.2090  143.0982  169.7042 C.ar    1  UNL1        0.1672
     16 F         140.8760  144.5273  170.0152 F       1  UNL1       -0.2018
     17 C         140.1716  142.2017  169.0959 C.ar    1  UNL1        0.0303
     18 C         140.2147  137.7706  162.6080 C.3     1  UNL1        0.0991
     19 N         141.0347  138.5433  161.6177 N.3     1  UNL1       -0.2688
     20 C         140.6671  139.9580  161.2811 C.3     1  UNL1        0.0751
     21 C         141.4872  140.7306  160.2909 C.3     1  UNL1        0.0489
     22 C         142.6749  140.0885  159.6373 C.3     1  UNL1        0.1157
     23 C         143.0425  138.6738  159.9740 C.3     1  UNL1        0.0489
     24 C         142.2224  137.9012  160.9642 C.3     1  UNL1        0.0751
     25 O         143.8834  139.5819  158.9073 O.3     1  UNL1       -0.3496
     26 C         144.3858  140.6838  158.0220 C.3     1  UNL1        0.1687
     27 C         143.4878  141.8713  158.2050 C.ar    1  UNL1        0.0108
     28 C         143.4963  143.2401  157.5915 C.ar    1  UNL1        0.0476
     29 C         142.4476  144.2409  157.9763 C.ar    1  UNL1        0.2221
     30 F         142.4561  145.6097  157.3629 F       1  UNL1       -0.1832
     31 N         141.3901  143.8731  158.9746 N.ar    1  UNL1       -0.2167
     32 C         141.3815  142.5043  159.5881 C.ar    1  UNL1        0.0990
     33 C         142.4304  141.5034  159.2033 C.ar    1  UNL1        0.0198
@<TRIPOS>BOND
     1     7     8    1
     2     8     1    1
     3     1     2   ar
     4     2     3   ar
     5     3     4   ar
     6     4    18    1
     7    18    19    1
     8    19    20    1
     9    20    21    1
    10    21    22    1
    11    22    23    1
    12    23    24    1
    13    22    25    1
    14    25    26    1
    15    26    27    1
    16    27    28   ar
    17    28    29   ar
    18    29    30    1
    19    29    31   ar
    20    31    32   ar
    21    32    33   ar
    22     4     5   ar
    23     5     6   ar
    24     8    10    1
    25    10    11   ar
    26    11    12   ar
    27    12    13   ar
    28    13    14    1
    29    13    15   ar
    30    15    16    1
    31    15    17   ar
    32     6     1   ar
    33    17    10   ar
    34    24    19    1
    35    33    27   ar
    36    33    22    1
    37     7     9    1
@<TRIPOS>MOLECULE
*****
 33 37 0 0 0
SMALL
GASTEIGER

@<TRIPOS>ATOM
      1 C         138.7756  139.2093  165.7657 C.ar    1  UNL1        0.0084
      2 C         138.2228  140.2972  164.8934 C.ar    1  UNL1       -0.0019
      3 C         138.0295  140.0562  163.4256 C.ar    1  UNL1       -0.0032
      4 C         138.3889  138.7272  162.8300 C.ar    1  UNL1       -0.0062
      5 C         138.9417  137.6393  163.7023 C.ar    1  UNL1       -0.0032
      6 C         139.1350  137.8804  165.1702 C.ar    1  UNL1       -0.0019
      7 O         137.9677  138.9233  168.2184 O.3     1  UNL1       -0.3756
      8 C         138.9689  139.4503  167.2335 C.3     1  UNL1        0.1551
      9 H         137.2634  138.4546  167.7440 H       1  UNL1        0.2112
     10 C         140.1634  140.2183  167.7165 C.ar    1  UNL1        0.0108
     11 C         141.4380  140.1978  166.9260 C.ar    1  UNL1        0.0008
     12 C         142.6326  140.9659  167.4090 C.ar    1  UNL1        0.0317
     13 C         142.5525  141.7543  168.6825 C.ar    1  UNL1        0.1674
     14 F         143.7470  142.5223  169.1655 F       1  UNL1       -0.2018
     15 C         141.2778  141.7749  169.4731 C.ar    1  UNL1        0.1672
     16 F         141.1978  142.5633  170.7466 F       1  UNL1       -0.2018
     17 C         140.0833  141.0068  168.9901 C.ar    1  UNL1        0.0303
     18 C         138.1956  138.4862  161.3622 C.3     1  UNL1        0.0991
     19 N         138.9581  139.3026  160.3612 N.3     1  UNL1       -0.2688
     20 C         140.4130  139.0276  160.1213 C.3     1  UNL1        0.0751
     21 C         141.1755  139.8440  159.1203 C.3     1  UNL1        0.0489
     22 C         140.4831  140.9356  158.3593 C.3     1  UNL1        0.1157
     23 C         139.0283  141.2106  158.5993 C.3     1  UNL1        0.0489
     24 C         138.2658  140.3942  159.6002 C.3     1  UNL1        0.0751
     25 O         139.9284  142.0538  157.5276 O.3     1  UNL1       -0.3496
     26 C         141.0367  142.5865  156.6685 C.3     1  UNL1        0.1687
     27 C         142.2765  141.7975  156.9694 C.ar    1  UNL1        0.0108
     28 C         143.6727  141.8762  156.4268 C.ar    1  UNL1        0.0476
     29 C         144.7268  140.9348  156.9292 C.ar    1  UNL1        0.2221
     30 F         146.1230  141.0135  156.3867 F       1  UNL1       -0.1832
     31 N         144.3847  139.9144  157.9742 N.ar    1  UNL1       -0.2167
     32 C         142.9885  139.8356  158.5167 C.ar    1  UNL1        0.0990
     33 C         141.9344  140.7772  158.0143 C.ar    1  UNL1        0.0198
@<TRIPOS>BOND
     1     7     8    1
     2     8     1    1
     3     1     2   ar
     4     2     3   ar
     5     3     4   ar
     6     4    18    1
     7    18    19    1
     8    19    20    1
     9    20    21    1
    10    21    22    1
    11    22    23    1
    12    23    24    1
    13    22    25    1
    14    25    26    1
    15    26    27    1
    16    27    28   ar
    17    28    29   ar
    18    29    30    1
    19    29    31   ar
    20    31    32   ar
    21    32    33   ar
    22     4     5   ar
    23     5     6   ar
    24     8    10    1
    25    10    11   ar
    26    11    12   ar
    27    12    13   ar
    28    13    14    1
    29    13    15   ar
    30    15    16    1
    31    15    17   ar
    32     6     1   ar
    33    17    10   ar
    34    24    19    1
    35    33    27   ar
    36    33    22    1
    37     7     9    1
@<TRIPOS>MOLECULE
*****
 33 37 0 0 0
SMALL
GASTEIGER

@<TRIPOS>ATOM
      1 C         142.5324  139.1934  166.6348 C.ar    1  UNL1        0.0084
      2 C         143.7790  139.1537  165.8016 C.ar    1  UNL1       -0.0019
      3 C         143.6913  138.8546  164.3344 C.ar    1  UNL1       -0.0032
      4 C         142.3568  138.5953  163.7003 C.ar    1  UNL1       -0.0062
      5 C         141.1101  138.6351  164.5335 C.ar    1  UNL1       -0.0032
      6 C         141.1979  138.9341  166.0008 C.ar    1  UNL1       -0.0019
      7 O         143.1871  138.4711  169.0431 O.3     1  UNL1       -0.3756
      8 C         142.6201  139.4925  168.1020 C.3     1  UNL1        0.1551
      9 H         143.4470  137.6809  168.5442 H       1  UNL1        0.2112
     10 C         142.1410  140.8129  168.6283 C.ar    1  UNL1        0.0108
     11 C         140.7859  141.3271  168.2422 C.ar    1  UNL1        0.0008
     12 C         140.3067  142.6475  168.7685 C.ar    1  UNL1        0.0317
     13 C         141.1827  143.4537  169.6809 C.ar    1  UNL1        0.1674
     14 F         140.7036  144.7741  170.2072 F       1  UNL1       -0.2018
     15 C         142.5379  142.9395  170.0672 C.ar    1  UNL1        0.1672
     16 F         143.4139  143.7457  170.9796 F       1  UNL1       -0.2018
     17 C         143.0171  141.6191  169.5409 C.ar    1  UNL1        0.0303
     18 C         142.2690  138.2963  162.2330 C.3     1  UNL1        0.0991
     19 N         142.4207  139.4028  161.2317 N.3     1  UNL1       -0.2688
     20 C         141.4434  140.5406  161.2175 C.3     1  UNL1        0.0751
     21 C         141.5951  141.6471  160.2162 C.3     1  UNL1        0.0489
     22 C         142.7241  141.6157  159.2290 C.3     1  UNL1        0.1157
     23 C         143.7013  140.4778  159.2432 C.3     1  UNL1        0.0489
     24 C         143.5496  139.3714  160.2445 C.3     1  UNL1        0.0751
     25 O         143.7970  141.7199  158.1859 O.3     1  UNL1       -0.3496
     26 C         143.5655  142.9809  157.4071 C.3     1  UNL1        0.1687
     27 C         142.3494  143.6560  157.9689 C.ar    1  UNL1        0.0108
     28 C         141.6484  144.9299  157.6007 C.ar    1  UNL1        0.0476
     29 C         140.4275  145.3602  158.3583 C.ar    1  UNL1        0.2221
     30 F         139.7266  146.6342  157.9900 F       1  UNL1       -0.1832
     31 N         139.9074  144.5165  159.4843 N.ar    1  UNL1       -0.2167
     32 C         140.6084  143.2425  159.8525 C.ar    1  UNL1        0.0990
     33 C         141.8294  142.8123  159.0948 C.ar    1  UNL1        0.0198
@<TRIPOS>BOND
     1     7     8    1
     2     8     1    1
     3     1     2   ar
     4     2     3   ar
     5     3     4   ar
     6     4    18    1
     7    18    19    1
     8    19    20    1
     9    20    21    1
    10    21    22    1
    11    22    23    1
    12    23    24    1
    13    22    25    1
    14    25    26    1
    15    26    27    1
    16    27    28   ar
    17    28    29   ar
    18    29    30    1
    19    29    31   ar
    20    31    32   ar
    21    32    33   ar
    22     4     5   ar
    23     5     6   ar
    24     8    10    1
    25    10    11   ar
    26    11    12   ar
    27    12    13   ar
    28    13    14    1
    29    13    15   ar
    30    15    16    1
    31    15    17   ar
    32     6     1   ar
    33    17    10   ar
    34    24    19    1
    35    33    27   ar
    36    33    22    1
    37     7     9    1
@<TRIPOS>MOLECULE
*****
 33 37 0 0 0
SMALL
GASTEIGER

@<TRIPOS>ATOM
      1 C         144.2174  141.7877  159.3692 C.ar    1  UNL1        0.0084
      2 C         143.8518  140.3452  159.1809 C.ar    1  UNL1       -0.0019
      3 C         143.8153  139.4204  160.3613 C.ar    1  UNL1       -0.0032
      4 C         144.1445  139.9381  161.7301 C.ar    1  UNL1       -0.0062
      5 C         144.5101  141.3806  161.9185 C.ar    1  UNL1       -0.0032
      6 C         144.5465  142.3054  160.7380 C.ar    1  UNL1       -0.0019
      7 O         143.4622  143.9865  158.2094 O.3     1  UNL1       -0.3756
      8 C         144.2538  142.7125  158.1888 C.3     1  UNL1        0.1551
      9 H         142.9872  144.0584  159.0521 H       1  UNL1        0.2112
     10 C         145.0819  142.3634  156.9878 C.ar    1  UNL1        0.0108
     11 C         146.5785  142.4277  157.0643 C.ar    1  UNL1        0.0008
     12 C         147.4065  142.0786  155.8632 C.ar    1  UNL1        0.0317
     13 C         146.7380  141.6651  154.5858 C.ar    1  UNL1        0.1674
     14 F         147.5660  141.3160  153.3848 F       1  UNL1       -0.2018
     15 C         145.2412  141.6007  154.5093 C.ar    1  UNL1        0.1672
     16 F         144.5727  141.1873  153.2318 F       1  UNL1       -0.2018
     17 C         144.4132  141.9499  155.7103 C.ar    1  UNL1        0.0303
     18 C         144.1081  139.0133  162.9105 C.3     1  UNL1        0.0991
     19 N         143.0321  139.1600  163.9454 N.3     1  UNL1       -0.2688
     20 C         143.3469  139.7877  165.2708 C.3     1  UNL1        0.0751
     21 C         142.2709  139.9344  166.3056 C.3     1  UNL1        0.0489
     22 C         140.8802  139.4534  166.0148 C.3     1  UNL1        0.1157
     23 C         140.5654  138.8258  164.6894 C.3     1  UNL1        0.0489
     24 C         141.6413  138.6791  163.6546 C.3     1  UNL1        0.0751
     25 O         139.4511  139.0219  165.8682 O.3     1  UNL1       -0.3496
     26 C         138.7320  139.3592  167.1407 C.3     1  UNL1        0.1687
     27 C         139.7167  139.9992  168.0739 C.ar    1  UNL1        0.0108
     28 C         139.5761  140.5365  169.4672 C.ar    1  UNL1        0.0476
     29 C         140.7629  141.1321  170.1648 C.ar    1  UNL1        0.2221
     30 F         140.6222  141.6694  171.5582 F       1  UNL1       -0.1832
     31 N         142.0905  141.1903  169.4690 N.ar    1  UNL1       -0.2167
     32 C         142.2312  140.6530  168.0757 C.ar    1  UNL1        0.0990
     33 C         141.0443  140.0575  167.3781 C.ar    1  UNL1        0.0198
@<TRIPOS>BOND
     1     7     8    1
     2     8     1    1
     3     1     2   ar
     4     2     3   ar
     5     3     4   ar
     6     4    18    1
     7    18    19    1
     8    19    20    1
     9    20    21    1
    10    21    22    1
    11    22    23    1
    12    23    24    1
    13    22    25    1
    14    25    26    1
    15    26    27    1
    16    27    28   ar
    17    28    29   ar
    18    29    30    1
    19    29    31   ar
    20    31    32   ar
    21    32    33   ar
    22     4     5   ar
    23     5     6   ar
    24     8    10    1
    25    10    11   ar
    26    11    12   ar
    27    12    13   ar
    28    13    14    1
    29    13    15   ar
    30    15    16    1
    31    15    17   ar
    32     6     1   ar
    33    17    10   ar
    34    24    19    1
    35    33    27   ar
    36    33    22    1
    37     7     9    1
@<TRIPOS>MOLECULE
*****
 33 37 0 0 0
SMALL
GASTEIGER

@<TRIPOS>ATOM
      1 C         140.0882  138.5174  160.3488 C.ar    1  UNL1        0.0084
      2 C         141.5557  138.3330  160.5991 C.ar    1  UNL1       -0.0019
      3 C         142.4908  138.1109  159.4475 C.ar    1  UNL1       -0.0032
      4 C         141.9585  138.0732  158.0456 C.ar    1  UNL1       -0.0062
      5 C         140.4911  138.2576  157.7953 C.ar    1  UNL1       -0.0032
      6 C         139.5559  138.4797  158.9470 C.ar    1  UNL1       -0.0019
      7 O         138.6518  137.5705  162.2956 O.3     1  UNL1       -0.3756
      8 C         139.1531  138.7394  161.5004 C.3     1  UNL1        0.1551
      9 H         139.0256  136.7508  161.9363 H       1  UNL1        0.2112
     10 C         138.7192  140.1304  161.8568 C.ar    1  UNL1        0.0108
     11 C         137.7432  140.3483  162.9747 C.ar    1  UNL1        0.0008
     12 C         137.3094  141.7393  163.3311 C.ar    1  UNL1        0.0317
     13 C         137.8515  142.9123  162.5695 C.ar    1  UNL1        0.1674
     14 F         137.4176  144.3033  162.9259 F       1  UNL1       -0.2018
     15 C         138.8276  142.6944  161.4515 C.ar    1  UNL1        0.1672
     16 F         139.3697  143.8674  160.6899 F       1  UNL1       -0.2018
     17 C         139.2614  141.3034  161.0951 C.ar    1  UNL1        0.0303
     18 C         142.8937  137.8512  156.8940 C.3     1  UNL1        0.0991
     19 N         142.8491  136.5613  156.1296 N.3     1  UNL1       -0.2688
     20 C         143.6544  135.3849  156.5959 C.3     1  UNL1        0.0751
     21 C         143.6097  134.0951  155.8315 C.3     1  UNL1        0.0489
     22 C         142.7598  133.9817  154.6008 C.3     1  UNL1        0.1157
     23 C         141.9545  135.1581  154.1344 C.3     1  UNL1        0.0489
     24 C         141.9991  136.4479  154.8988 C.3     1  UNL1        0.0751
     25 O         141.9605  133.7200  153.3587 O.3     1  UNL1       -0.3496
     26 C         142.2134  132.3036  152.9345 C.3     1  UNL1        0.1687
     27 C         143.1690  131.6899  153.9144 C.ar    1  UNL1        0.0108
     28 C         143.7753  130.3207  154.0019 C.ar    1  UNL1        0.0476
     29 C         144.7193  129.9885  155.1192 C.ar    1  UNL1        0.2221
     30 F         145.3256  128.6193  155.2068 F       1  UNL1       -0.1832
     31 N         145.0571  131.0256  156.1491 N.ar    1  UNL1       -0.2167
     32 C         144.4508  132.3948  156.0615 C.ar    1  UNL1        0.0990
     33 C         143.5068  132.7269  154.9441 C.ar    1  UNL1        0.0198
@<TRIPOS>BOND
     1     7     8    1
     2     8     1    1
     3     1     2   ar
     4     2     3   ar
     5     3     4   ar
     6     4    18    1
     7    18    19    1
     8    19    20    1
     9    20    21    1
    10    21    22    1
    11    22    23    1
    12    23    24    1
    13    22    25    1
    14    25    26    1
    15    26    27    1
    16    27    28   ar
    17    28    29   ar
    18    29    30    1
    19    29    31   ar
    20    31    32   ar
    21    32    33   ar
    22     4     5   ar
    23     5     6   ar
    24     8    10    1
    25    10    11   ar
    26    11    12   ar
    27    12    13   ar
    28    13    14    1
    29    13    15   ar
    30    15    16    1
    31    15    17   ar
    32     6     1   ar
    33    17    10   ar
    34    24    19    1
    35    33    27   ar
    36    33    22    1
    37     7     9    1
@<TRIPOS>MOLECULE
*****
 33 37 0 0 0
SMALL
GASTEIGER

@<TRIPOS>ATOM
      1 C         142.4422  137.0132  156.1609 C.ar    1  UNL1        0.0084
      2 C         142.7839  138.3745  156.6903 C.ar    1  UNL1       -0.0019
      3 C         141.6902  139.3412  157.0356 C.ar    1  UNL1       -0.0032
      4 C         140.2547  138.9466  156.8516 C.ar    1  UNL1       -0.0062
      5 C         139.9130  137.5853  156.3223 C.ar    1  UNL1       -0.0032
      6 C         141.0068  136.6186  155.9769 C.ar    1  UNL1       -0.0019
      7 O         144.8902  136.5562  155.4201 O.3     1  UNL1       -0.3756
      8 C         143.5359  136.0466  155.8156 C.3     1  UNL1        0.1551
      9 H         144.8888  137.5261  155.4388 H       1  UNL1        0.2112
     10 C         143.2755  134.5702  155.8658 C.ar    1  UNL1        0.0108
     11 C         143.4699  133.8175  157.1486 C.ar    1  UNL1        0.0008
     12 C         143.2095  132.3411  157.1987 C.ar    1  UNL1        0.0317
     13 C         142.7547  131.6175  155.9661 C.ar    1  UNL1        0.1674
     14 F         142.4942  130.1411  156.0162 F       1  UNL1       -0.2018
     15 C         142.5602  132.3702  154.6832 C.ar    1  UNL1        0.1672
     16 F         142.1054  131.6465  153.4506 F       1  UNL1       -0.2018
     17 C         142.8207  133.8465  154.6331 C.ar    1  UNL1        0.0303
     18 C         139.1610  139.9132  157.1969 C.3     1  UNL1        0.0991
     19 N         138.8895  140.2574  158.6315 N.3     1  UNL1       -0.2688
     20 C         139.0280  139.2075  159.6938 C.3     1  UNL1        0.0751
     21 C         138.7565  139.5517  161.1283 C.3     1  UNL1        0.0489
     22 C         138.3464  140.9458  161.5004 C.3     1  UNL1        0.1157
     23 C         138.2079  141.9956  160.4381 C.3     1  UNL1        0.0489
     24 C         138.4794  141.6514  159.0036 C.3     1  UNL1        0.0751
     25 O         137.9306  142.2896  162.0212 O.3     1  UNL1       -0.3496
     26 C         137.7702  142.1809  163.5088 C.3     1  UNL1        0.1687
     27 C         138.0870  140.7699  163.9072 C.ar    1  UNL1        0.0108
     28 C         138.0971  140.0815  165.2399 C.ar    1  UNL1        0.0476
     29 C         138.4634  138.6299  165.3314 C.ar    1  UNL1        0.2221
     30 F         138.4736  137.9415  166.6641 F       1  UNL1       -0.1832
     31 N         138.8195  137.8664  164.0902 N.ar    1  UNL1       -0.2167
     32 C         138.8093  138.5548  162.7576 C.ar    1  UNL1        0.0990
     33 C         138.4431  140.0065  162.6661 C.ar    1  UNL1        0.0198
@<TRIPOS>BOND
     1     7     8    1
     2     8     1    1
     3     1     2   ar
     4     2     3   ar
     5     3     4   ar
     6     4    18    1
     7    18    19    1
     8    19    20    1
     9    20    21    1
    10    21    22    1
    11    22    23    1
    12    23    24    1
    13    22    25    1
    14    25    26    1
    15    26    27    1
    16    27    28   ar
    17    28    29   ar
    18    29    30    1
    19    29    31   ar
    20    31    32   ar
    21    32    33   ar
    22     4     5   ar
    23     5     6   ar
    24     8    10    1
    25    10    11   ar
    26    11    12   ar
    27    12    13   ar
    28    13    14    1
    29    13    15   ar
    30    15    16    1
    31    15    17   ar
    32     6     1   ar
    33    17    10   ar
    34    24    19    1
    35    33    27   ar
    36    33    22    1
    37     7     9    1
@<TRIPOS>MOLECULE
*****
 33 37 0 0 0
SMALL
GASTEIGER

@<TRIPOS>ATOM
      1 C         141.7945  138.5383  160.1978 C.ar    1  UNL1        0.0084
      2 C         142.0105  137.6741  161.4046 C.ar    1  UNL1       -0.0019
      3 C         140.9782  137.6329  162.4921 C.ar    1  UNL1       -0.0032
      4 C         139.7298  138.4560  162.3727 C.ar    1  UNL1       -0.0062
      5 C         139.5139  139.3203  161.1659 C.ar    1  UNL1       -0.0032
      6 C         140.5462  139.3614  160.0784 C.ar    1  UNL1       -0.0019
      7 O         144.0991  139.3479  159.3126 O.3     1  UNL1       -0.3756
      8 C         142.8268  138.5795  159.1103 C.3     1  UNL1        0.1551
      9 H         144.0944  139.7551  160.1930 H       1  UNL1        0.2112
     10 C         142.5869  137.8523  157.8205 C.ar    1  UNL1        0.0108
     11 C         142.9750  136.4093  157.6897 C.ar    1  UNL1        0.0008
     12 C         142.7351  135.6821  156.3999 C.ar    1  UNL1        0.0317
     13 C         142.1071  136.3978  155.2409 C.ar    1  UNL1        0.1674
     14 F         141.8672  135.6706  153.9511 F       1  UNL1       -0.2018
     15 C         141.7189  137.8408  155.3717 C.ar    1  UNL1        0.1672
     16 F         141.0909  138.5566  154.2128 F       1  UNL1       -0.2018
     17 C         141.9588  138.5681  156.6615 C.ar    1  UNL1        0.0303
     18 C         138.6975  138.4148  163.4602 C.3     1  UNL1        0.0991
     19 N         139.0386  138.9031  164.8370 N.3     1  UNL1       -0.2688
     20 C         140.3189  139.6480  165.0728 C.3     1  UNL1        0.0751
     21 C         140.6599  140.1362  166.4495 C.3     1  UNL1        0.0489
     22 C         139.7205  139.8795  167.5904 C.3     1  UNL1        0.1157
     23 C         138.4401  139.1345  167.3545 C.3     1  UNL1        0.0489
     24 C         138.0992  138.6463  165.9778 C.3     1  UNL1        0.0751
     25 O         138.8841  139.6985  168.8223 O.3     1  UNL1       -0.3496
     26 C         139.6044  140.3416  169.9703 C.3     1  UNL1        0.1687
     27 C         140.8861  140.9200  169.4477 C.ar    1  UNL1        0.0108
     28 C         141.9971  141.6697  170.1212 C.ar    1  UNL1        0.0476
     29 C         143.1797  142.1339  169.3239 C.ar    1  UNL1        0.2221
     30 F         144.2907  142.8837  169.9973 F       1  UNL1       -0.1832
     31 N         143.2515  141.8483  167.8530 N.ar    1  UNL1       -0.2167
     32 C         142.1405  141.0985  167.1796 C.ar    1  UNL1        0.0990
     33 C         140.9578  140.6343  167.9769 C.ar    1  UNL1        0.0198
@<TRIPOS>BOND
     1     7     8    1
     2     8     1    1
     3     1     2   ar
     4     2     3   ar
     5     3     4   ar
     6     4    18    1
     7    18    19    1
     8    19    20    1
     9    20    21    1
    10    21    22    1
    11    22    23    1
    12    23    24    1
    13    22    25    1
    14    25    26    1
    15    26    27    1
    16    27    28   ar
    17    28    29   ar
    18    29    30    1
    19    29    31   ar
    20    31    32   ar
    21    32    33   ar
    22     4     5   ar
    23     5     6   ar
    24     8    10    1
    25    10    11   ar
    26    11    12   ar
    27    12    13   ar
    28    13    14    1
    29    13    15   ar
    30    15    16    1
    31    15    17   ar
    32     6     1   ar
    33    17    10   ar
    34    24    19    1
    35    33    27   ar
    36    33    22    1
    37     7     9    1
