@<TRIPOS>MOLECULE
*****
 34 38 0 0 0
SMALL
GASTEIGER

@<TRIPOS>ATOM
      1 N         138.6275  139.1650  165.0922 N.3     1  UNL1       -0.2703
      2 C         138.0457  140.3499  164.3798 C.3     1  UNL1        0.0727
      3 C         138.0485  140.3993  162.8806 C.3     1  UNL1        0.0260
      4 C         138.6329  139.2638  162.0939 C.3     1  UNL1        0.0737
      5 C         139.2146  138.0789  162.8062 C.3     1  UNL1        0.0260
      6 C         139.2119  138.0295  164.3054 C.3     1  UNL1        0.0727
      7 C         139.1792  138.2090  161.1779 C.3     1  UNL1        0.0306
      8 C         138.9737  138.6699  159.7653 C.3     1  UNL1        0.1001
      9 N         138.3004  140.0097  159.8082 N.am    1  UNL1       -0.2425
     10 C         138.0898  140.3767  161.2473 C.2     1  UNL1        0.2296
     11 O         137.4486  141.6355  161.7515 O.2     1  UNL1       -0.2745
     12 C         137.9069  140.8371  158.6207 C.ar    1  UNL1        0.1574
     13 C         138.6236  142.1226  158.3316 C.ar    1  UNL1        0.0414
     14 C         138.2300  142.9501  157.1439 C.ar    1  UNL1        0.0651
     15 C         137.1197  142.4920  156.2454 C.ar    1  UNL1        0.2766
     16 O         136.7261  143.3194  155.0578 O.2     1  UNL1       -0.2655
     17 N         136.4029  141.2064  156.5345 N.ar    1  UNL1       -0.2134
     18 C         135.2926  140.7482  155.6360 C.3     1  UNL1        0.1571
     19 N         136.7966  140.3790  157.7222 N.ar    1  UNL1       -0.1513
     20 C         138.6248  139.1156  166.5914 C.3     1  UNL1        0.1063
     21 C         139.7804  139.6811  167.3625 C.3     1  UNL1        0.1483
     22 O         139.6989  139.8013  168.8555 O.3     1  UNL1       -0.3786
     23 H         140.5236  140.1830  169.1946 H       1  UNL1        0.2108
     24 C         140.0791  142.5461  166.5245 C.3     1  UNL1        0.0306
     25 C         141.1670  141.5588  166.2217 C.ar    1  UNL1       -0.0238
     26 C         141.0177  140.1263  166.6407 C.ar    1  UNL1        0.0015
     27 C         142.1056  139.1391  166.3379 C.ar    1  UNL1       -0.0020
     28 C         143.3428  139.5843  165.6161 C.ar    1  UNL1        0.0060
     29 C         143.4921  141.0168  165.1971 C.ar    1  UNL1        0.0748
     30 C         142.4042  142.0041  165.4999 C.ar    1  UNL1        0.0233
     31 C         142.8294  143.3402  164.9671 C.3     1  UNL1        0.2352
     32 O         144.1801  143.1788  164.3350 O.3     1  UNL1       -0.4404
     33 C         144.5897  141.7428  164.4772 C.2     1  UNL1        0.3413
     34 O         145.8717  141.1388  163.9857 O.2     1  UNL1       -0.2449
@<TRIPOS>BOND
     1    24    25    1
     2    25    26   ar
     3    26    21    1
     4    21    22    1
     5    21    20    1
     6    20     1    1
     7     1     2    1
     8     2     3    1
     9     3     4    1
    10     4     5    1
    11     5     6    1
    12     4     7    1
    13     7     8    1
    14     8     9    1
    15     9    12    1
    16    12    13   ar
    17    13    14   ar
    18    14    15   ar
    19    15    16    2
    20    15    17   ar
    21    17    18    1
    22    17    19   ar
    23     9    10   am
    24    10    11    2
    25    26    27   ar
    26    27    28   ar
    27    28    29   ar
    28    29    30   ar
    29    30    31    1
    30    31    32    1
    31    32    33    1
    32    33    34    2
    33    30    25   ar
    34     6     1    1
    35    19    12   ar
    36    33    29    1
    37    10     4    1
    38    22    23    1
@<TRIPOS>MOLECULE
*****
 34 38 0 0 0
SMALL
GASTEIGER

@<TRIPOS>ATOM
      1 N         139.8685  138.3107  161.8663 N.3     1  UNL1       -0.2703
      2 C         139.0964  139.0853  162.8928 C.3     1  UNL1        0.0727
      3 C         139.7065  139.3694  164.2332 C.3     1  UNL1        0.0260
      4 C         141.0889  138.8790  164.5472 C.3     1  UNL1        0.0737
      5 C         141.8611  138.1044  163.5207 C.3     1  UNL1        0.0260
      6 C         141.2509  137.8203  162.1803 C.3     1  UNL1        0.0727
      7 C         142.4539  138.4552  165.0023 C.3     1  UNL1        0.0306
      8 C         142.6498  138.9511  166.4044 C.3     1  UNL1        0.1001
      9 N         141.4058  139.6815  166.8158 N.am    1  UNL1       -0.2425
     10 C         140.4412  139.6369  165.6680 C.2     1  UNL1        0.2296
     11 O         139.0696  140.2437  165.6450 O.2     1  UNL1       -0.2745
     12 C         141.1683  140.3407  168.1420 C.ar    1  UNL1        0.1574
     13 C         139.9463  139.9982  168.9416 C.ar    1  UNL1        0.0414
     14 C         139.7088  140.6574  170.2679 C.ar    1  UNL1        0.0651
     15 C         140.6932  141.6591  170.7946 C.ar    1  UNL1        0.2766
     16 O         140.4557  142.3183  172.1209 O.2     1  UNL1       -0.2655
     17 N         141.9153  142.0016  169.9950 N.ar    1  UNL1       -0.2134
     18 C         142.8998  143.0034  170.5217 C.3     1  UNL1        0.1571
     19 N         142.1528  141.3424  168.6687 N.ar    1  UNL1       -0.1513
     20 C         139.2584  138.0265  160.5257 C.3     1  UNL1        0.1063
     21 C         139.4295  139.0044  159.4013 C.3     1  UNL1        0.1483
     22 O         139.4108  138.5242  157.9803 O.3     1  UNL1       -0.3786
     23 H         139.5338  139.2782  157.3826 H       1  UNL1        0.2108
     24 C         142.1897  140.1790  159.4461 C.3     1  UNL1        0.0306
     25 C         140.9995  141.0498  159.7202 C.ar    1  UNL1       -0.0238
     26 C         139.6194  140.4625  159.6978 C.ar    1  UNL1        0.0015
     27 C         138.4292  141.3333  159.9719 C.ar    1  UNL1       -0.0020
     28 C         138.6191  142.7914  160.2683 C.ar    1  UNL1        0.0060
     29 C         139.9991  143.3787  160.2907 C.ar    1  UNL1        0.0748
     30 C         141.1893  142.5079  160.0166 C.ar    1  UNL1        0.0233
     31 C         142.4191  143.3619  160.1070 C.3     1  UNL1        0.2352
     32 O         141.9890  144.7605  160.4370 O.3     1  UNL1       -0.4404
     33 C         140.4934  144.7709  160.5505 C.2     1  UNL1        0.3413
     34 O         139.6415  145.9640  160.8681 O.2     1  UNL1       -0.2449
@<TRIPOS>BOND
     1    24    25    1
     2    25    26   ar
     3    26    21    1
     4    21    22    1
     5    21    20    1
     6    20     1    1
     7     1     2    1
     8     2     3    1
     9     3     4    1
    10     4     5    1
    11     5     6    1
    12     4     7    1
    13     7     8    1
    14     8     9    1
    15     9    12    1
    16    12    13   ar
    17    13    14   ar
    18    14    15   ar
    19    15    16    2
    20    15    17   ar
    21    17    18    1
    22    17    19   ar
    23     9    10   am
    24    10    11    2
    25    26    27   ar
    26    27    28   ar
    27    28    29   ar
    28    29    30   ar
    29    30    31    1
    30    31    32    1
    31    32    33    1
    32    33    34    2
    33    30    25   ar
    34     6     1    1
    35    19    12   ar
    36    33    29    1
    37    10     4    1
    38    22    23    1
@<TRIPOS>MOLECULE
*****
 34 38 0 0 0
SMALL
GASTEIGER

@<TRIPOS>ATOM
      1 N         139.8815  137.8021  164.1466 N.3     1  UNL1       -0.2703
      2 C         139.4671  137.8829  162.7073 C.3     1  UNL1        0.0727
      3 C         140.5004  138.0893  161.6398 C.3     1  UNL1        0.0260
      4 C         141.9482  138.2149  162.0117 C.3     1  UNL1        0.0737
      5 C         142.3626  138.1340  163.4510 C.3     1  UNL1        0.0260
      6 C         141.3292  137.9276  164.5185 C.3     1  UNL1        0.0727
      7 C         143.4254  138.3570  162.2302 C.3     1  UNL1        0.0306
      8 C         144.0759  138.5454  160.8917 C.3     1  UNL1        0.1001
      9 N         143.0008  138.5196  159.8460 N.am    1  UNL1       -0.2425
     10 C         141.6858  138.3153  160.5381 C.2     1  UNL1        0.2296
     11 O         140.3440  138.2270  159.8736 O.2     1  UNL1       -0.2745
     12 C         143.2048  138.6714  158.3678 C.ar    1  UNL1        0.1574
     13 C         142.6080  137.6720  157.4218 C.ar    1  UNL1        0.0414
     14 C         142.8121  137.8238  155.9435 C.ar    1  UNL1        0.0651
     15 C         143.6129  138.9750  155.4112 C.ar    1  UNL1        0.2766
     16 O         143.8170  139.1268  153.9329 O.2     1  UNL1       -0.2655
     17 N         144.2097  139.9745  156.3573 N.ar    1  UNL1       -0.2134
     18 C         145.0106  141.1257  155.8250 C.3     1  UNL1        0.1571
     19 N         144.0056  139.8226  157.8355 N.ar    1  UNL1       -0.1513
     20 C         138.8481  137.5957  165.2142 C.3     1  UNL1        0.1063
     21 C         138.1510  138.7768  165.8216 C.3     1  UNL1        0.1483
     22 O         137.3090  138.6004  167.0504 O.3     1  UNL1       -0.3786
     23 H         136.9331  139.4560  167.3104 H       1  UNL1        0.2108
     24 C         140.1013  140.7493  166.9645 C.3     1  UNL1        0.0306
     25 C         139.2710  141.1206  165.7716 C.ar    1  UNL1       -0.0238
     26 C         138.2959  140.1344  165.2002 C.ar    1  UNL1        0.0015
     27 C         137.4656  140.5057  164.0074 C.ar    1  UNL1       -0.0020
     28 C         137.6105  141.8632  163.3860 C.ar    1  UNL1        0.0060
     29 C         138.5856  142.8494  163.9575 C.ar    1  UNL1        0.0748
     30 C         139.4159  142.4781  165.1503 C.ar    1  UNL1        0.0233
     31 C         140.2874  143.6503  165.4914 C.3     1  UNL1        0.2352
     32 O         139.9958  144.7461  164.5095 O.3     1  UNL1       -0.4404
     33 C         138.9440  144.2511  163.5614 C.2     1  UNL1        0.3413
     34 O         138.3542  145.0224  162.4181 O.2     1  UNL1       -0.2449
@<TRIPOS>BOND
     1    24    25    1
     2    25    26   ar
     3    26    21    1
     4    21    22    1
     5    21    20    1
     6    20     1    1
     7     1     2    1
     8     2     3    1
     9     3     4    1
    10     4     5    1
    11     5     6    1
    12     4     7    1
    13     7     8    1
    14     8     9    1
    15     9    12    1
    16    12    13   ar
    17    13    14   ar
    18    14    15   ar
    19    15    16    2
    20    15    17   ar
    21    17    18    1
    22    17    19   ar
    23     9    10   am
    24    10    11    2
    25    26    27   ar
    26    27    28   ar
    27    28    29   ar
    28    29    30   ar
    29    30    31    1
    30    31    32    1
    31    32    33    1
    32    33    34    2
    33    30    25   ar
    34     6     1    1
    35    19    12   ar
    36    33    29    1
    37    10     4    1
    38    22    23    1
@<TRIPOS>MOLECULE
*****
 34 38 0 0 0
SMALL
GASTEIGER

@<TRIPOS>ATOM
      1 N         142.2706  139.3636  165.3647 N.3     1  UNL1       -0.2703
      2 C         141.4572  138.4638  164.4822 C.3     1  UNL1        0.0727
      3 C         141.8298  138.2918  163.0395 C.3     1  UNL1        0.0260
      4 C         143.0158  139.0195  162.4792 C.3     1  UNL1        0.0737
      5 C         143.8291  139.9193  163.3617 C.3     1  UNL1        0.0260
      6 C         143.4565  140.0913  164.8044 C.3     1  UNL1        0.0727
      7 C         144.1686  139.6786  161.7816 C.3     1  UNL1        0.0306
      8 C         144.1663  139.2245  160.3519 C.3     1  UNL1        0.1001
      9 N         143.0119  138.2849  160.1659 N.am    1  UNL1       -0.2425
     10 C         142.3009  138.1581  161.4806 C.2     1  UNL1        0.2296
     11 O         141.0880  137.3177  161.7495 O.2     1  UNL1       -0.2745
     12 C         142.6349  137.5934  158.8894 C.ar    1  UNL1        0.1574
     13 C         141.5581  138.1659  158.0161 C.ar    1  UNL1        0.0414
     14 C         141.1810  137.4743  156.7395 C.ar    1  UNL1        0.0651
     15 C         141.8807  136.2103  156.3363 C.ar    1  UNL1        0.2766
     16 O         141.5037  135.5188  155.0597 O.2     1  UNL1       -0.2655
     17 N         142.9576  135.6377  157.2096 N.ar    1  UNL1       -0.2134
     18 C         143.6573  134.3737  156.8064 C.3     1  UNL1        0.1571
     19 N         143.3346  136.3294  158.4862 N.ar    1  UNL1       -0.1513
     20 C         141.8980  139.5357  166.8075 C.3     1  UNL1        0.1063
     21 C         140.8293  140.5145  167.1945 C.3     1  UNL1        0.1483
     22 O         140.3352  140.5647  168.6099 O.3     1  UNL1       -0.3786
     23 H         139.6503  141.2469  168.6893 H       1  UNL1        0.2108
     24 C         138.3933  139.7087  165.6399 C.3     1  UNL1        0.0306
     25 C         139.0367  141.0402  165.3889 C.ar    1  UNL1       -0.0238
     26 C         140.2547  141.4431  166.1661 C.ar    1  UNL1        0.0015
     27 C         140.8981  142.7747  165.9151 C.ar    1  UNL1       -0.0020
     28 C         140.3235  143.7033  164.8868 C.ar    1  UNL1        0.0060
     29 C         139.1056  143.3004  164.1095 C.ar    1  UNL1        0.0748
     30 C         138.4622  141.9689  164.3606 C.ar    1  UNL1        0.0233
     31 C         137.2791  141.8461  163.4467 C.3     1  UNL1        0.2352
     32 O         137.1912  143.1017  162.6308 O.3     1  UNL1       -0.4404
     33 C         138.3201  144.0005  163.0405 C.2     1  UNL1        0.3413
     34 O         138.6122  145.3607  162.4796 O.2     1  UNL1       -0.2449
@<TRIPOS>BOND
     1    24    25    1
     2    25    26   ar
     3    26    21    1
     4    21    22    1
     5    21    20    1
     6    20     1    1
     7     1     2    1
     8     2     3    1
     9     3     4    1
    10     4     5    1
    11     5     6    1
    12     4     7    1
    13     7     8    1
    14     8     9    1
    15     9    12    1
    16    12    13   ar
    17    13    14   ar
    18    14    15   ar
    19    15    16    2
    20    15    17   ar
    21    17    18    1
    22    17    19   ar
    23     9    10   am
    24    10    11    2
    25    26    27   ar
    26    27    28   ar
    27    28    29   ar
    28    29    30   ar
    29    30    31    1
    30    31    32    1
    31    32    33    1
    32    33    34    2
    33    30    25   ar
    34     6     1    1
    35    19    12   ar
    36    33    29    1
    37    10     4    1
    38    22    23    1
@<TRIPOS>MOLECULE
*****
 34 38 0 0 0
SMALL
GASTEIGER

@<TRIPOS>ATOM
      1 N         144.8949  141.4748  163.4079 N.3     1  UNL1       -0.2703
      2 C         144.7858  141.7355  161.9348 C.3     1  UNL1        0.0727
      3 C         144.1459  140.7173  161.0383 C.3     1  UNL1        0.0260
      4 C         143.6152  139.4383  161.6150 C.3     1  UNL1        0.0737
      5 C         143.7243  139.1776  163.0881 C.3     1  UNL1        0.0260
      6 C         144.3641  140.1958  163.9845 C.3     1  UNL1        0.0727
      7 C         143.0421  138.1206  162.0454 C.3     1  UNL1        0.0306
      8 C         142.5088  137.4268  160.8271 C.3     1  UNL1        0.1001
      9 N         142.7522  138.3158  159.6436 N.am    1  UNL1       -0.2425
     10 C         143.4360  139.5589  160.1305 C.2     1  UNL1        0.2296
     11 O         143.8653  140.7190  159.2821 O.2     1  UNL1       -0.2745
     12 C         142.3777  138.0145  158.2228 C.ar    1  UNL1        0.1574
     13 C         141.1602  138.6482  157.6176 C.ar    1  UNL1        0.0414
     14 C         140.7857  138.3469  156.1967 C.ar    1  UNL1        0.0651
     15 C         141.6286  137.4119  155.3810 C.ar    1  UNL1        0.2766
     16 O         141.2540  137.1107  153.9601 O.2     1  UNL1       -0.2655
     17 N         142.8461  136.7782  155.9862 N.ar    1  UNL1       -0.2134
     18 C         143.6890  135.8433  155.1704 C.3     1  UNL1        0.1571
     19 N         143.2206  137.0796  157.4071 N.ar    1  UNL1       -0.1513
     20 C         145.5347  142.4931  164.3045 C.3     1  UNL1        0.1063
     21 C         144.6833  143.4839  165.0416 C.3     1  UNL1        0.1483
     22 O         145.2331  144.2008  166.2390 O.3     1  UNL1       -0.3786
     23 H         144.5587  144.8005  166.5946 H       1  UNL1        0.2108
     24 C         142.3718  142.1106  166.3725 C.3     1  UNL1        0.0306
     25 C         142.1265  143.0711  165.2468 C.ar    1  UNL1       -0.0238
     26 C         143.2822  143.7578  164.5814 C.ar    1  UNL1        0.0015
     27 C         143.0368  144.7183  163.4557 C.ar    1  UNL1       -0.0020
     28 C         141.6357  144.9922  162.9954 C.ar    1  UNL1        0.0060
     29 C         140.4800  144.3056  163.6609 C.ar    1  UNL1        0.0748
     30 C         140.7254  143.3450  164.7865 C.ar    1  UNL1        0.0233
     31 C         139.3972  142.8216  165.2470 C.3     1  UNL1        0.2352
     32 O         138.3310  143.4586  164.4060 O.3     1  UNL1       -0.4404
     33 C         139.0002  144.3757  163.4257 C.2     1  UNL1        0.3413
     34 O         138.3107  145.2156  162.3917 O.2     1  UNL1       -0.2449
@<TRIPOS>BOND
     1    24    25    1
     2    25    26   ar
     3    26    21    1
     4    21    22    1
     5    21    20    1
     6    20     1    1
     7     1     2    1
     8     2     3    1
     9     3     4    1
    10     4     5    1
    11     5     6    1
    12     4     7    1
    13     7     8    1
    14     8     9    1
    15     9    12    1
    16    12    13   ar
    17    13    14   ar
    18    14    15   ar
    19    15    16    2
    20    15    17   ar
    21    17    18    1
    22    17    19   ar
    23     9    10   am
    24    10    11    2
    25    26    27   ar
    26    27    28   ar
    27    28    29   ar
    28    29    30   ar
    29    30    31    1
    30    31    32    1
    31    32    33    1
    32    33    34    2
    33    30    25   ar
    34     6     1    1
    35    19    12   ar
    36    33    29    1
    37    10     4    1
    38    22    23    1
@<TRIPOS>MOLECULE
*****
 34 38 0 0 0
SMALL
GASTEIGER

@<TRIPOS>ATOM
      1 N         138.5852  141.2435  163.9605 N.3     1  UNL1       -0.2703
      2 C         138.9204  140.9091  162.5373 C.3     1  UNL1        0.0727
      3 C         139.3044  141.9992  161.5812 C.3     1  UNL1        0.0260
      4 C         139.3532  143.4237  162.0484 C.3     1  UNL1        0.0737
      5 C         139.0180  143.7582  163.4716 C.3     1  UNL1        0.0260
      6 C         138.6340  142.6681  164.4277 C.3     1  UNL1        0.0727
      7 C         139.4452  144.8861  162.3694 C.3     1  UNL1        0.0306
      8 C         139.8615  145.6091  161.1227 C.3     1  UNL1        0.1001
      9 N         140.0269  144.5935  160.0312 N.am    1  UNL1       -0.2425
     10 C         139.7128  143.2429  160.6033 C.2     1  UNL1        0.2296
     11 O         139.7514  141.9402  159.8608 O.2     1  UNL1       -0.2745
     12 C         140.4348  144.8785  158.6163 C.ar    1  UNL1        0.1574
     13 C         141.7352  145.5714  158.3356 C.ar    1  UNL1        0.0414
     14 C         142.1431  145.8564  156.9206 C.ar    1  UNL1        0.0651
     15 C         141.2506  145.4484  155.7861 C.ar    1  UNL1        0.2766
     16 O         141.6585  145.7334  154.3710 O.2     1  UNL1       -0.2655
     17 N         139.9501  144.7555  156.0667 N.ar    1  UNL1       -0.2134
     18 C         139.0576  144.3476  154.9322 C.3     1  UNL1        0.1571
     19 N         139.5423  144.4706  157.4818 N.ar    1  UNL1       -0.1513
     20 C         138.2011  140.1534  164.9167 C.3     1  UNL1        0.1063
     21 C         139.2477  139.5025  165.7716 C.3     1  UNL1        0.1483
     22 O         139.9130  138.2393  165.3115 O.3     1  UNL1       -0.3786
     23 H         140.5590  137.9535  165.9761 H       1  UNL1        0.2108
     24 C         141.6752  141.2550  165.9626 C.3     1  UNL1        0.0306
     25 C         140.8429  140.9911  167.1823 C.ar    1  UNL1       -0.0238
     26 C         139.6292  140.1149  167.0868 C.ar    1  UNL1        0.0015
     27 C         138.7968  139.8510  168.3065 C.ar    1  UNL1       -0.0020
     28 C         139.1782  140.4633  169.6216 C.ar    1  UNL1        0.0060
     29 C         140.3919  141.3395  169.7170 C.ar    1  UNL1        0.0748
     30 C         141.2242  141.6034  168.4974 C.ar    1  UNL1        0.0233
     31 C         142.3573  142.5023  168.8951 C.3     1  UNL1        0.2352
     32 O         142.2252  142.7940  170.3605 O.3     1  UNL1       -0.4404
     33 C         141.0106  142.0753  170.8685 C.2     1  UNL1        0.3413
     34 O         140.5035  142.0899  172.2801 O.2     1  UNL1       -0.2449
@<TRIPOS>BOND
     1    24    25    1
     2    25    26   ar
     3    26    21    1
     4    21    22    1
     5    21    20    1
     6    20     1    1
     7     1     2    1
     8     2     3    1
     9     3     4    1
    10     4     5    1
    11     5     6    1
    12     4     7    1
    13     7     8    1
    14     8     9    1
    15     9    12    1
    16    12    13   ar
    17    13    14   ar
    18    14    15   ar
    19    15    16    2
    20    15    17   ar
    21    17    18    1
    22    17    19   ar
    23     9    10   am
    24    10    11    2
    25    26    27   ar
    26    27    28   ar
    27    28    29   ar
    28    29    30   ar
    29    30    31    1
    30    31    32    1
    31    32    33    1
    32    33    34    2
    33    30    25   ar
    34     6     1    1
    35    19    12   ar
    36    33    29    1
    37    10     4    1
    38    22    23    1
@<TRIPOS>MOLECULE
*****
 34 38 0 0 0
SMALL
GASTEIGER

@<TRIPOS>ATOM
      1 N         142.0827  138.0132  161.8983 N.3     1  UNL1       -0.2703
      2 C         142.7880  138.7505  162.9977 C.3     1  UNL1        0.0727
      3 C         142.0553  139.0940  164.2607 C.3     1  UNL1        0.0260
      4 C         140.6172  138.7001  164.4242 C.3     1  UNL1        0.0737
      5 C         139.9118  137.9628  163.3248 C.3     1  UNL1        0.0260
      6 C         140.6446  137.6193  162.0618 C.3     1  UNL1        0.0727
      7 C         139.1853  138.3736  164.7294 C.3     1  UNL1        0.0306
      8 C         138.8708  138.9021  166.0976 C.3     1  UNL1        0.1001
      9 N         140.1083  139.5553  166.6380 N.am    1  UNL1       -0.2425
     10 C         141.1876  139.4304  165.6038 C.2     1  UNL1        0.2296
     11 O         142.5910  139.9454  165.7274 O.2     1  UNL1       -0.2745
     12 C         140.2429  140.2170  167.9773 C.ar    1  UNL1        0.1574
     13 C         139.1428  140.0925  168.9893 C.ar    1  UNL1        0.0414
     14 C         139.2775  140.7543  170.3287 C.ar    1  UNL1        0.0651
     15 C         140.5122  141.5406  170.6561 C.ar    1  UNL1        0.2766
     16 O         140.6468  142.2023  171.9955 O.2     1  UNL1       -0.2655
     17 N         141.6124  141.6651  169.6440 N.ar    1  UNL1       -0.2134
     18 C         142.8471  142.4514  169.9714 C.3     1  UNL1        0.1571
     19 N         141.4777  141.0033  168.3046 N.ar    1  UNL1       -0.1513
     20 C         142.8154  137.6697  160.6353 C.3     1  UNL1        0.1063
     21 C         142.7715  138.6061  159.4644 C.3     1  UNL1        0.1483
     22 O         143.2426  138.1449  158.1170 O.3     1  UNL1       -0.3786
     23 H         143.1473  138.8671  157.4765 H       1  UNL1        0.2108
     24 C         139.8979  139.2318  158.8717 C.3     1  UNL1        0.0306
     25 C         140.8196  140.3167  159.3444 C.ar    1  UNL1       -0.0238
     26 C         142.2563  140.0039  159.6407 C.ar    1  UNL1        0.0015
     27 C         143.1781  141.0887  160.1134 C.ar    1  UNL1       -0.0020
     28 C         142.6630  142.4864  160.2898 C.ar    1  UNL1        0.0060
     29 C         141.2263  142.7992  159.9935 C.ar    1  UNL1        0.0748
     30 C         140.3046  141.7144  159.5208 C.ar    1  UNL1        0.0233
     31 C         138.9480  142.3184  159.3088 C.3     1  UNL1        0.2352
     32 O         139.0313  143.7766  159.6505 O.3     1  UNL1       -0.4404
     33 C         140.4394  144.0737  160.0737 C.2     1  UNL1        0.3413
     34 O         140.9678  145.4107  160.5018 O.2     1  UNL1       -0.2449
@<TRIPOS>BOND
     1    24    25    1
     2    25    26   ar
     3    26    21    1
     4    21    22    1
     5    21    20    1
     6    20     1    1
     7     1     2    1
     8     2     3    1
     9     3     4    1
    10     4     5    1
    11     5     6    1
    12     4     7    1
    13     7     8    1
    14     8     9    1
    15     9    12    1
    16    12    13   ar
    17    13    14   ar
    18    14    15   ar
    19    15    16    2
    20    15    17   ar
    21    17    18    1
    22    17    19   ar
    23     9    10   am
    24    10    11    2
    25    26    27   ar
    26    27    28   ar
    27    28    29   ar
    28    29    30   ar
    29    30    31    1
    30    31    32    1
    31    32    33    1
    32    33    34    2
    33    30    25   ar
    34     6     1    1
    35    19    12   ar
    36    33    29    1
    37    10     4    1
    38    22    23    1
@<TRIPOS>MOLECULE
*****
 34 38 0 0 0
SMALL
GASTEIGER

@<TRIPOS>ATOM
      1 N         140.0951  138.3613  161.7189 N.3     1  UNL1       -0.2703
      2 C         139.2984  139.1550  162.7115 C.3     1  UNL1        0.0727
      3 C         139.8545  139.4201  164.0791 C.3     1  UNL1        0.0260
      4 C         141.2072  138.8916  164.4541 C.3     1  UNL1        0.0737
      5 C         142.0039  138.0978  163.4615 C.3     1  UNL1        0.0260
      6 C         141.4478  137.8327  162.0939 C.3     1  UNL1        0.0727
      7 C         142.5381  138.4298  164.9696 C.3     1  UNL1        0.0306
      8 C         142.6835  138.9179  166.3805 C.3     1  UNL1        0.1001
      9 N         141.4424  139.6814  166.7371 N.am    1  UNL1       -0.2425
     10 C         140.5301  139.6651  165.5465 C.2     1  UNL1        0.2296
     11 O         139.1780  140.3092  165.4630 O.2     1  UNL1       -0.2745
     12 C         141.1629  140.3446  168.0530 C.ar    1  UNL1        0.1574
     13 C         139.9000  140.0294  168.7985 C.ar    1  UNL1        0.0414
     14 C         139.6204  140.6927  170.1145 C.ar    1  UNL1        0.0651
     15 C         140.6037  141.6711  170.6851 C.ar    1  UNL1        0.2766
     16 O         140.3242  142.3344  172.0011 O.2     1  UNL1       -0.2655
     17 N         141.8667  141.9864  169.9397 N.ar    1  UNL1       -0.2134
     18 C         142.8501  142.9649  170.5103 C.3     1  UNL1        0.1571
     19 N         142.1462  141.3231  168.6236 N.ar    1  UNL1       -0.1513
     20 C         139.5390  138.0961  160.3512 C.3     1  UNL1        0.1063
     21 C         139.5764  139.1704  159.3051 C.3     1  UNL1        0.1483
     22 O         138.2965  139.7308  158.7594 O.3     1  UNL1       -0.3786
     23 H         138.4976  140.4107  158.0974 H       1  UNL1        0.2108
     24 C         140.7480  141.6762  160.4663 C.3     1  UNL1        0.0306
     25 C         141.4796  140.9372  159.3852 C.ar    1  UNL1       -0.0238
     26 C         140.8938  139.6844  158.8046 C.ar    1  UNL1        0.0015
     27 C         141.6254  138.9454  157.7236 C.ar    1  UNL1       -0.0020
     28 C         142.9427  139.4593  157.2231 C.ar    1  UNL1        0.0060
     29 C         143.5285  140.7122  157.8037 C.ar    1  UNL1        0.0748
     30 C         142.7969  141.4511  158.8848 C.ar    1  UNL1        0.0233
     31 C         143.6159  142.6496  159.2628 C.3     1  UNL1        0.2352
     32 O         144.8536  142.6514  158.4154 O.3     1  UNL1       -0.4404
     33 C         144.7995  141.4540  157.5136 C.2     1  UNL1        0.3413
     34 O         145.8348  141.0664  156.4998 O.2     1  UNL1       -0.2449
@<TRIPOS>BOND
     1    24    25    1
     2    25    26   ar
     3    26    21    1
     4    21    22    1
     5    21    20    1
     6    20     1    1
     7     1     2    1
     8     2     3    1
     9     3     4    1
    10     4     5    1
    11     5     6    1
    12     4     7    1
    13     7     8    1
    14     8     9    1
    15     9    12    1
    16    12    13   ar
    17    13    14   ar
    18    14    15   ar
    19    15    16    2
    20    15    17   ar
    21    17    18    1
    22    17    19   ar
    23     9    10   am
    24    10    11    2
    25    26    27   ar
    26    27    28   ar
    27    28    29   ar
    28    29    30   ar
    29    30    31    1
    30    31    32    1
    31    32    33    1
    32    33    34    2
    33    30    25   ar
    34     6     1    1
    35    19    12   ar
    36    33    29    1
    37    10     4    1
    38    22    23    1
@<TRIPOS>MOLECULE
*****
 34 38 0 0 0
SMALL
GASTEIGER

@<TRIPOS>ATOM
      1 N         144.4644  141.8658  161.7569 N.3     1  UNL1       -0.2703
      2 C         143.9762  142.7872  162.8351 C.3     1  UNL1        0.0727
      3 C         143.5703  142.2328  164.1685 C.3     1  UNL1        0.0260
      4 C         143.6527  140.7569  164.4236 C.3     1  UNL1        0.0737
      5 C         144.1410  139.8355  163.3454 C.3     1  UNL1        0.0260
      6 C         144.5469  140.3900  162.0120 C.3     1  UNL1        0.0727
      7 C         143.6808  139.3113  164.8228 C.3     1  UNL1        0.0306
      8 C         143.1929  139.2116  166.2379 C.3     1  UNL1        0.1001
      9 N         142.8634  140.5958  166.7131 N.am    1  UNL1       -0.2425
     10 C         143.1476  141.5508  165.5919 C.2     1  UNL1        0.2296
     11 O         142.9597  143.0384  165.6317 O.2     1  UNL1       -0.2745
     12 C         142.3414  140.9607  168.0711 C.ar    1  UNL1        0.1574
     13 C         142.5376  140.0245  169.2265 C.ar    1  UNL1        0.0414
     14 C         142.0156  140.3895  170.5845 C.ar    1  UNL1        0.0651
     15 C         141.2974  141.6907  170.7872 C.ar    1  UNL1        0.2766
     16 O         140.7754  142.0557  172.1453 O.2     1  UNL1       -0.2655
     17 N         141.1012  142.6270  169.6317 N.ar    1  UNL1       -0.2134
     18 C         140.3830  143.9282  169.8344 C.3     1  UNL1        0.1571
     19 N         141.6232  142.2619  168.2737 N.ar    1  UNL1       -0.1513
     20 C         144.8703  142.4203  160.4235 C.3     1  UNL1        0.1063
     21 C         143.8438  142.6105  159.3464 C.3     1  UNL1        0.1483
     22 O         144.2140  143.3115  158.0730 O.3     1  UNL1       -0.3786
     23 H         143.4408  143.3497  157.4885 H       1  UNL1        0.2108
     24 C         141.7765  144.3561  160.6422 C.3     1  UNL1        0.0306
     25 C         141.4135  142.9725  160.1906 C.ar    1  UNL1       -0.0238
     26 C         142.4472  142.0997  159.5427 C.ar    1  UNL1        0.0015
     27 C         142.0842  140.7161  159.0912 C.ar    1  UNL1       -0.0020
     28 C         140.6876  140.2053  159.2875 C.ar    1  UNL1        0.0060
     29 C         139.6540  141.0781  159.9353 C.ar    1  UNL1        0.0748
     30 C         140.0170  142.4617  160.3869 C.ar    1  UNL1        0.0233
     31 C         138.7946  143.0880  160.9900 C.3     1  UNL1        0.2352
     32 O         137.6762  142.0915  160.9112 O.3     1  UNL1       -0.4404
     33 C         138.2074  140.8494  160.2594 C.2     1  UNL1        0.3413
     34 O         137.4286  139.5980  159.9805 O.2     1  UNL1       -0.2449
@<TRIPOS>BOND
     1    24    25    1
     2    25    26   ar
     3    26    21    1
     4    21    22    1
     5    21    20    1
     6    20     1    1
     7     1     2    1
     8     2     3    1
     9     3     4    1
    10     4     5    1
    11     5     6    1
    12     4     7    1
    13     7     8    1
    14     8     9    1
    15     9    12    1
    16    12    13   ar
    17    13    14   ar
    18    14    15   ar
    19    15    16    2
    20    15    17   ar
    21    17    18    1
    22    17    19   ar
    23     9    10   am
    24    10    11    2
    25    26    27   ar
    26    27    28   ar
    27    28    29   ar
    28    29    30   ar
    29    30    31    1
    30    31    32    1
    31    32    33    1
    32    33    34    2
    33    30    25   ar
    34     6     1    1
    35    19    12   ar
    36    33    29    1
    37    10     4    1
    38    22    23    1
