@<TRIPOS>MOLECULE
*****
 34 38 0 0 0
SMALL
GASTEIGER

@<TRIPOS>ATOM
      1 C         139.1784  140.3321  166.1439 C.2     1  UNL1        0.3072
      2 C         139.2775  139.8759  167.5694 C.3     1  UNL1        0.1631
      3 C         140.4217  140.3325  168.4252 C.2     1  UNL1        0.0844
      4 N         140.5207  139.8762  169.8507 N.2     1  UNL1       -0.2296
      5 C         141.6649  140.3328  170.7065 C.2     1  UNL1        0.1880
      6 N         142.7101  141.2456  170.1367 N.am    1  UNL1       -0.1535
      7 C         142.6110  141.7018  168.7113 C.2     1  UNL1        0.2788
      8 O         143.6561  142.6145  168.1416 O.2     1  UNL1       -0.2677
      9 C         141.4668  141.2452  167.8555 C.2     1  UNL1        0.1519
     10 C         141.3677  141.7015  166.4300 C.2     1  UNL1        0.3343
     11 N         140.2235  141.2449  165.5742 N.2     1  UNL1       -0.0041
     12 N         138.0342  139.8756  165.2881 N.pl3   1  UNL1       -0.2243
     13 H         137.1201  139.8642  165.6535 H       1  UNL1        0.2918
     14 N         136.7751  141.3674  163.0101 N.3     1  UNL1       -0.3190
     15 C         137.6532  140.1823  162.7366 C.3     1  UNL1        0.0939
     16 C         137.9017  139.7432  161.3239 C.3     1  UNL1        0.0196
     17 C         138.7797  138.5582  161.0504 C.3     1  UNL1        0.0016
     18 C         139.4092  137.8123  162.1894 C.3     1  UNL1        0.0042
     19 C         139.1607  138.2515  163.6020 C.3     1  UNL1        0.0478
     20 C         138.2827  139.4365  163.8756 C.3     1  UNL1        0.1704
     21 H         136.4351  141.7495  162.1277 H       1  UNL1        0.1189
     22 H         137.3107  142.0802  163.5054 H       1  UNL1        0.1189
     23 N         142.4128  142.6142  165.8603 N.pl3   1  UNL1       -0.2002
     24 H         142.5803  143.4908  166.2760 H       1  UNL1        0.2983
     25 C         143.2027  142.1915  164.6572 C.2     1  UNL1        0.1392
     26 C         144.2860  141.1630  164.7947 C.2     1  UNL1        0.0378
     27 C         145.0758  140.7402  163.5917 C.2     1  UNL1        0.0030
     28 C         144.7825  141.3459  162.2511 C.2     1  UNL1       -0.0010
     29 C         143.6993  142.3743  162.1136 C.2     1  UNL1        0.0195
     30 C         143.1875  143.1409  160.9303 C.2     1  UNL1        0.0746
     31 CL        143.6932  143.0304  159.5224 Cl      1  UNL1       -0.0809
     32 C         142.0813  144.0375  161.4019 C.2     1  UNL1        0.1051
     33 N         141.9094  143.8250  162.8768 N.2     1  UNL1       -0.2574
     34 C         142.9094  142.7971  163.3167 C.3     1  UNL1        0.1853
@<TRIPOS>BOND
     1    15    14    1
     2    15    16    1
     3    16    17    1
     4    17    18    1
     5    18    19    1
     6    19    20    1
     7    20    12    1
     8    12     1    1
     9     1     2    1
    10     2     3    1
    11     3     4    2
    12     4     5    1
    13     5     6    2
    14     6     7    1
    15     7     8    2
    16     7     9    1
    17     9    10    2
    18    10    23    1
    19    23    25    1
    20    25    26    2
    21    26    27    1
    22    27    28    2
    23    28    29    1
    24    29    30    2
    25    30    31    1
    26    30    32    1
    27    32    33    2
    28    33    34    1
    29    10    11    1
    30    20    15    1
    31    11     1    2
    32     9     3    1
    33    34    25    1
    34    34    29    1
    35    14    21    1
    36    14    22    1
    37    12    13    1
    38    23    24    1
@<TRIPOS>MOLECULE
*****
 34 38 0 0 0
SMALL
GASTEIGER

@<TRIPOS>ATOM
      1 C         142.8766  142.2196  166.8732 C.2     1  UNL1        0.3072
      2 C         142.9027  142.2094  168.3729 C.3     1  UNL1        0.1631
      3 C         141.8283  141.4937  169.1369 C.2     1  UNL1        0.0844
      4 N         141.8544  141.4836  170.6366 N.2     1  UNL1       -0.2296
      5 C         140.7801  140.7679  171.4005 C.2     1  UNL1        0.1880
      6 N         139.6796  140.0625  170.6647 N.am    1  UNL1       -0.1535
      7 C         139.6535  140.0727  169.1650 C.2     1  UNL1        0.2788
      8 O         138.5531  139.3672  168.4292 O.2     1  UNL1       -0.2677
      9 C         140.7279  140.7883  168.4011 C.2     1  UNL1        0.1519
     10 C         140.7018  140.7985  166.9013 C.2     1  UNL1        0.3343
     11 N         141.7762  141.5142  166.1374 N.2     1  UNL1       -0.0041
     12 N         143.9510  142.9353  166.1092 N.pl3   1  UNL1       -0.2243
     13 H         144.4596  143.6611  166.5378 H       1  UNL1        0.2918
     14 N         143.6398  144.9436  163.9026 N.3     1  UNL1       -0.3190
     15 C         144.0949  143.5492  163.5889 C.3     1  UNL1        0.0939
     16 C         144.3943  143.1589  162.1718 C.3     1  UNL1        0.0196
     17 C         144.8494  141.7645  161.8581 C.3     1  UNL1        0.0016
     18 C         145.0050  140.7603  162.9615 C.3     1  UNL1        0.0042
     19 C         144.7055  141.1505  164.3785 C.3     1  UNL1        0.0478
     20 C         144.2505  142.5450  164.6922 C.3     1  UNL1        0.1704
     21 H         143.5899  145.4870  163.0408 H       1  UNL1        0.1189
     22 H         144.3023  145.3816  164.5427 H       1  UNL1        0.1189
     23 N         139.6014  140.0931  166.1655 N.pl3   1  UNL1       -0.2002
     24 H         139.3107  139.1981  166.4548 H       1  UNL1        0.2983
     25 C         138.9439  140.7513  164.9889 C.2     1  UNL1        0.1392
     26 C         138.6095  142.2128  165.0372 C.2     1  UNL1        0.0378
     27 C         137.9520  142.8710  163.8606 C.2     1  UNL1        0.0030
     28 C         137.6287  142.0677  162.6357 C.2     1  UNL1       -0.0010
     29 C         137.9630  140.6063  162.5875 C.2     1  UNL1        0.0195
     30 C         137.7658  139.5661  161.5249 C.2     1  UNL1        0.0746
     31 CL        137.1424  139.7880  160.1787 Cl      1  UNL1       -0.0809
     32 C         138.3016  138.2650  162.0447 C.2     1  UNL1        0.1051
     33 N         138.8298  138.5010  163.4286 N.2     1  UNL1       -0.2574
     34 C         138.6206  139.9480  163.7641 C.3     1  UNL1        0.1853
@<TRIPOS>BOND
     1    15    14    1
     2    15    16    1
     3    16    17    1
     4    17    18    1
     5    18    19    1
     6    19    20    1
     7    20    12    1
     8    12     1    1
     9     1     2    1
    10     2     3    1
    11     3     4    2
    12     4     5    1
    13     5     6    2
    14     6     7    1
    15     7     8    2
    16     7     9    1
    17     9    10    2
    18    10    23    1
    19    23    25    1
    20    25    26    2
    21    26    27    1
    22    27    28    2
    23    28    29    1
    24    29    30    2
    25    30    31    1
    26    30    32    1
    27    32    33    2
    28    33    34    1
    29    10    11    1
    30    20    15    1
    31    11     1    2
    32     9     3    1
    33    34    25    1
    34    34    29    1
    35    14    21    1
    36    14    22    1
    37    12    13    1
    38    23    24    1
@<TRIPOS>MOLECULE
*****
 34 38 0 0 0
SMALL
GASTEIGER

@<TRIPOS>ATOM
      1 C         142.7343  141.1722  166.5546 C.2     1  UNL1        0.3072
      2 C         142.9658  141.5661  167.9833 C.3     1  UNL1        0.1631
      3 C         141.9187  141.2813  169.0190 C.2     1  UNL1        0.0844
      4 N         142.1503  141.6752  170.4477 N.2     1  UNL1       -0.2296
      5 C         141.1032  141.3904  171.4833 C.2     1  UNL1        0.1880
      6 N         139.8246  140.7116  171.0902 N.am    1  UNL1       -0.1535
      7 C         139.5931  140.3177  169.6615 C.2     1  UNL1        0.2788
      8 O         138.3145  139.6390  169.2684 O.2     1  UNL1       -0.2677
      9 C         140.6401  140.6026  168.6259 C.2     1  UNL1        0.1519
     10 C         140.4087  140.2086  167.1971 C.2     1  UNL1        0.3343
     11 N         141.4557  140.4935  166.1615 N.2     1  UNL1       -0.0041
     12 N         143.7814  141.4570  165.5190 N.pl3   1  UNL1       -0.2243
     13 H         144.5911  140.8990  165.4712 H       1  UNL1        0.2918
     14 N         145.8628  142.0097  163.4304 N.3     1  UNL1       -0.3190
     15 C         144.6355  142.8683  163.5118 C.3     1  UNL1        0.0939
     16 C         144.4489  144.0032  162.5489 C.3     1  UNL1        0.0196
     17 C         143.2216  144.8617  162.6303 C.3     1  UNL1        0.0016
     18 C         142.1809  144.5853  163.6747 C.3     1  UNL1        0.0042
     19 C         142.3675  143.4504  164.6375 C.3     1  UNL1        0.0478
     20 C         143.5948  142.5919  164.5561 C.3     1  UNL1        0.1704
     21 H         146.4571  142.3375  162.6690 H       1  UNL1        0.1189
     22 H         145.5901  141.0423  163.2566 H       1  UNL1        0.1189
     23 N         139.1301  139.5299  166.8040 N.pl3   1  UNL1       -0.2002
     24 H         138.4131  139.4083  167.4676 H       1  UNL1        0.2983
     25 C         138.9439  139.0364  165.3998 C.2     1  UNL1        0.1392
     26 C         139.2607  137.6107  165.0577 C.2     1  UNL1        0.0378
     27 C         139.0745  137.1172  163.6535 C.2     1  UNL1        0.0030
     28 C         138.5715  138.0494  162.5914 C.2     1  UNL1       -0.0010
     29 C         138.2547  139.4751  162.9335 C.2     1  UNL1        0.0195
     30 C         137.7470  140.6173  162.1043 C.2     1  UNL1        0.0746
     31 CL        137.4236  140.5686  160.6404 Cl      1  UNL1       -0.0809
     32 C         137.6194  141.8167  162.9960 C.2     1  UNL1        0.1051
     33 N         138.0482  141.4158  164.3763 N.2     1  UNL1       -0.2574
     34 C         138.4409  139.9686  164.3378 C.3     1  UNL1        0.1853
@<TRIPOS>BOND
     1    15    14    1
     2    15    16    1
     3    16    17    1
     4    17    18    1
     5    18    19    1
     6    19    20    1
     7    20    12    1
     8    12     1    1
     9     1     2    1
    10     2     3    1
    11     3     4    2
    12     4     5    1
    13     5     6    2
    14     6     7    1
    15     7     8    2
    16     7     9    1
    17     9    10    2
    18    10    23    1
    19    23    25    1
    20    25    26    2
    21    26    27    1
    22    27    28    2
    23    28    29    1
    24    29    30    2
    25    30    31    1
    26    30    32    1
    27    32    33    2
    28    33    34    1
    29    10    11    1
    30    20    15    1
    31    11     1    2
    32     9     3    1
    33    34    25    1
    34    34    29    1
    35    14    21    1
    36    14    22    1
    37    12    13    1
    38    23    24    1
@<TRIPOS>MOLECULE
*****
 34 38 0 0 0
SMALL
GASTEIGER

@<TRIPOS>ATOM
      1 C         139.4669  141.6465  160.4155 C.2     1  UNL1        0.3072
      2 C         140.2331  141.7330  159.1289 C.3     1  UNL1        0.1631
      3 C         141.2468  140.6813  158.7875 C.2     1  UNL1        0.0844
      4 N         142.0131  140.7677  157.5010 N.2     1  UNL1       -0.2296
      5 C         143.0267  139.7161  157.1597 C.2     1  UNL1        0.1880
      6 N         143.2741  138.5780  158.1049 N.am    1  UNL1       -0.1535
      7 C         142.5078  138.4915  159.3915 C.2     1  UNL1        0.2788
      8 O         142.7551  137.3534  160.3367 O.2     1  UNL1       -0.2677
      9 C         141.4942  139.5432  159.7328 C.2     1  UNL1        0.1519
     10 C         140.7278  139.4567  161.0194 C.2     1  UNL1        0.3343
     11 N         139.7142  140.5084  161.3607 N.2     1  UNL1       -0.0041
     12 N         138.4532  142.6982  160.7568 N.pl3   1  UNL1       -0.2243
     13 H         137.8221  143.0147  160.0707 H       1  UNL1        0.2918
     14 N         136.8630  141.3111  162.8892 N.3     1  UNL1       -0.3190
     15 C         137.6060  142.5741  163.2097 C.3     1  UNL1        0.0939
     16 C         137.5539  143.1435  164.5965 C.3     1  UNL1        0.0196
     17 C         138.2970  144.4065  164.9170 C.3     1  UNL1        0.0016
     18 C         139.0921  145.1001  163.8508 C.3     1  UNL1        0.0042
     19 C         139.1441  144.5307  162.4641 C.3     1  UNL1        0.0478
     20 C         138.4011  143.2677  162.1435 C.3     1  UNL1        0.1704
     21 H         136.3810  140.9789  163.7245 H       1  UNL1        0.1189
     22 H         137.5220  140.6003  162.5715 H       1  UNL1        0.1189
     23 N         140.9751  138.3186  161.9647 N.pl3   1  UNL1       -0.2002
     24 H         140.8861  137.3898  161.6507 H       1  UNL1        0.2983
     25 C         141.3582  138.5957  163.3882 C.2     1  UNL1        0.1392
     26 C         142.7984  138.5339  163.8030 C.2     1  UNL1        0.0378
     27 C         143.1815  138.8110  165.2265 C.2     1  UNL1        0.0030
     28 C         142.1243  139.1498  166.2353 C.2     1  UNL1       -0.0010
     29 C         140.6842  139.2115  165.8206 C.2     1  UNL1        0.0195
     30 C         139.4313  139.5171  166.5866 C.2     1  UNL1        0.0746
     31 CL        139.3500  139.8520  168.0465 Cl      1  UNL1       -0.0809
     32 C         138.2738  139.4288  165.6365 C.2     1  UNL1        0.1051
     33 N         138.8114  139.0688  164.2833 N.2     1  UNL1       -0.2574
     34 C         140.3010  138.9345  164.3970 C.3     1  UNL1        0.1853
@<TRIPOS>BOND
     1    15    14    1
     2    15    16    1
     3    16    17    1
     4    17    18    1
     5    18    19    1
     6    19    20    1
     7    20    12    1
     8    12     1    1
     9     1     2    1
    10     2     3    1
    11     3     4    2
    12     4     5    1
    13     5     6    2
    14     6     7    1
    15     7     8    2
    16     7     9    1
    17     9    10    2
    18    10    23    1
    19    23    25    1
    20    25    26    2
    21    26    27    1
    22    27    28    2
    23    28    29    1
    24    29    30    2
    25    30    31    1
    26    30    32    1
    27    32    33    2
    28    33    34    1
    29    10    11    1
    30    20    15    1
    31    11     1    2
    32     9     3    1
    33    34    25    1
    34    34    29    1
    35    14    21    1
    36    14    22    1
    37    12    13    1
    38    23    24    1
@<TRIPOS>MOLECULE
*****
 34 38 0 0 0
SMALL
GASTEIGER

@<TRIPOS>ATOM
      1 C         139.5027  138.4628  165.2118 C.2     1  UNL1        0.3072
      2 C         138.7059  138.7622  166.4469 C.3     1  UNL1        0.1631
      3 C         139.3442  139.4889  167.5934 C.2     1  UNL1        0.0844
      4 N         138.5474  139.7883  168.8285 N.2     1  UNL1       -0.2296
      5 C         139.1857  140.5150  169.9750 C.2     1  UNL1        0.1880
      6 N         140.6209  140.9423  169.8864 N.am    1  UNL1       -0.1535
      7 C         141.4176  140.6429  168.6513 C.2     1  UNL1        0.2788
      8 O         142.8528  141.0702  168.5627 O.2     1  UNL1       -0.2677
      9 C         140.7793  139.9162  167.5048 C.2     1  UNL1        0.1519
     10 C         141.5761  139.6168  166.2697 C.2     1  UNL1        0.3343
     11 N         140.9378  138.8901  165.1232 N.2     1  UNL1       -0.0041
     12 N         138.8643  137.7361  164.0653 N.pl3   1  UNL1       -0.2243
     13 H         138.3611  136.9057  164.2277 H       1  UNL1        0.2918
     14 N         141.3304  137.1614  162.4565 N.3     1  UNL1       -0.3190
     15 C         140.2257  137.9873  161.8668 C.3     1  UNL1        0.0939
     16 C         140.3542  138.5259  160.4727 C.3     1  UNL1        0.0196
     17 C         139.2496  139.3518  159.8830 C.3     1  UNL1        0.0016
     18 C         138.0165  139.6391  160.6875 C.3     1  UNL1        0.0042
     19 C         137.8881  139.1006  162.0815 C.3     1  UNL1        0.0478
     20 C         138.9927  138.2747  162.6712 C.3     1  UNL1        0.1704
     21 H         142.0847  137.0672  161.7764 H       1  UNL1        0.1189
     22 H         140.9724  136.2372  162.6974 H       1  UNL1        0.1189
     23 N         143.0112  140.0441  166.1811 N.pl3   1  UNL1       -0.2002
     24 H         143.6915  139.6033  166.7398 H       1  UNL1        0.2983
     25 C         143.4099  141.1430  165.2412 C.2     1  UNL1        0.1392
     26 C         143.5967  142.5394  165.7561 C.2     1  UNL1        0.0378
     27 C         143.9954  143.6383  164.8162 C.2     1  UNL1        0.0030
     28 C         144.2073  143.3408  163.3613 C.2     1  UNL1       -0.0010
     29 C         144.0206  141.9444  162.8464 C.2     1  UNL1        0.0195
     30 C         144.1575  141.3539  161.4744 C.2     1  UNL1        0.0746
     31 CL        144.5412  142.0968  160.2291 Cl      1  UNL1       -0.0809
     32 C         143.8435  139.8900  161.5663 C.2     1  UNL1        0.1051
     33 N         143.5124  139.5758  162.9952 N.2     1  UNL1       -0.2574
     34 C         143.6218  140.8455  163.7863 C.3     1  UNL1        0.1853
@<TRIPOS>BOND
     1    15    14    1
     2    15    16    1
     3    16    17    1
     4    17    18    1
     5    18    19    1
     6    19    20    1
     7    20    12    1
     8    12     1    1
     9     1     2    1
    10     2     3    1
    11     3     4    2
    12     4     5    1
    13     5     6    2
    14     6     7    1
    15     7     8    2
    16     7     9    1
    17     9    10    2
    18    10    23    1
    19    23    25    1
    20    25    26    2
    21    26    27    1
    22    27    28    2
    23    28    29    1
    24    29    30    2
    25    30    31    1
    26    30    32    1
    27    32    33    2
    28    33    34    1
    29    10    11    1
    30    20    15    1
    31    11     1    2
    32     9     3    1
    33    34    25    1
    34    34    29    1
    35    14    21    1
    36    14    22    1
    37    12    13    1
    38    23    24    1
@<TRIPOS>MOLECULE
*****
 34 38 0 0 0
SMALL
GASTEIGER

@<TRIPOS>ATOM
      1 C         142.9248  141.7171  159.7589 C.2     1  UNL1        0.3072
      2 C         143.1221  140.4987  158.9066 C.3     1  UNL1        0.1631
      3 C         141.9335  139.7280  158.4133 C.2     1  UNL1        0.0844
      4 N         142.1307  138.5096  157.5610 N.2     1  UNL1       -0.2296
      5 C         140.9421  137.7390  157.0677 C.2     1  UNL1        0.1880
      6 N         139.5563  138.1867  157.4269 N.am    1  UNL1       -0.1535
      7 C         139.3590  139.4051  158.2792 C.2     1  UNL1        0.2788
      8 O         137.9732  139.8528  158.6383 O.2     1  UNL1       -0.2677
      9 C         140.5476  140.1757  158.7724 C.2     1  UNL1        0.1519
     10 C         140.3504  141.3942  159.6248 C.2     1  UNL1        0.3343
     11 N         141.5390  142.1649  160.1181 N.2     1  UNL1       -0.0041
     12 N         144.1134  142.4879  160.2522 N.pl3   1  UNL1       -0.2243
     13 H         144.7546  142.8686  159.6094 H       1  UNL1        0.2918
     14 N         142.7227  144.7231  161.6906 N.3     1  UNL1       -0.3190
     15 C         143.6298  143.7961  162.4441 C.3     1  UNL1        0.0939
     16 C         143.8416  143.9867  163.9168 C.3     1  UNL1        0.0196
     17 C         144.7487  143.0597  164.6703 C.3     1  UNL1        0.0016
     18 C         145.4441  141.9420  163.9510 C.3     1  UNL1        0.0042
     19 C         145.2324  141.7514  162.4783 C.3     1  UNL1        0.0478
     20 C         144.3252  142.6785  161.7249 C.3     1  UNL1        0.1704
     21 H         142.3381  145.4175  162.3312 H       1  UNL1        0.1189
     22 H         141.9617  144.1883  161.2720 H       1  UNL1        0.1189
     23 N         138.9646  141.8420  159.9840 N.pl3   1  UNL1       -0.2002
     24 H         138.3263  142.0845  159.2747 H       1  UNL1        0.2983
     25 C         138.5511  141.9201  161.4237 C.2     1  UNL1        0.1392
     26 C         137.8949  140.7420  162.0806 C.2     1  UNL1        0.0378
     27 C         137.4815  140.8202  163.5204 C.2     1  UNL1        0.0030
     28 C         137.7242  142.0764  164.3033 C.2     1  UNL1       -0.0010
     29 C         138.3804  143.2545  163.6464 C.2     1  UNL1        0.0195
     30 C         138.7462  144.6153  164.1605 C.2     1  UNL1        0.0746
     31 CL        138.5134  145.1239  165.5523 Cl      1  UNL1       -0.0809
     32 C         139.3858  145.3782  163.0384 C.2     1  UNL1        0.1051
     33 N         139.4152  144.4889  161.8309 N.2     1  UNL1       -0.2574
     34 C         138.7939  143.1764  162.2066 C.3     1  UNL1        0.1853
@<TRIPOS>BOND
     1    15    14    1
     2    15    16    1
     3    16    17    1
     4    17    18    1
     5    18    19    1
     6    19    20    1
     7    20    12    1
     8    12     1    1
     9     1     2    1
    10     2     3    1
    11     3     4    2
    12     4     5    1
    13     5     6    2
    14     6     7    1
    15     7     8    2
    16     7     9    1
    17     9    10    2
    18    10    23    1
    19    23    25    1
    20    25    26    2
    21    26    27    1
    22    27    28    2
    23    28    29    1
    24    29    30    2
    25    30    31    1
    26    30    32    1
    27    32    33    2
    28    33    34    1
    29    10    11    1
    30    20    15    1
    31    11     1    2
    32     9     3    1
    33    34    25    1
    34    34    29    1
    35    14    21    1
    36    14    22    1
    37    12    13    1
    38    23    24    1
@<TRIPOS>MOLECULE
*****
 34 38 0 0 0
SMALL
GASTEIGER

@<TRIPOS>ATOM
      1 C         142.7277  142.0358  159.8359 C.2     1  UNL1        0.3072
      2 C         142.9278  140.8575  158.9296 C.3     1  UNL1        0.1631
      3 C         141.7446  140.0672  158.4545 C.2     1  UNL1        0.0844
      4 N         141.9447  138.8889  157.5482 N.2     1  UNL1       -0.2296
      5 C         140.7616  138.0987  157.0731 C.2     1  UNL1        0.1880
      6 N         139.3784  138.4868  157.5044 N.am    1  UNL1       -0.1535
      7 C         139.1782  139.6651  158.4108 C.2     1  UNL1        0.2788
      8 O         137.7950  140.0532  158.8421 O.2     1  UNL1       -0.2677
      9 C         140.3614  140.4553  158.8858 C.2     1  UNL1        0.1519
     10 C         140.1613  141.6337  159.7922 C.2     1  UNL1        0.3343
     11 N         141.3444  142.4239  160.2672 N.2     1  UNL1       -0.0041
     12 N         143.9109  142.8261  160.3110 N.pl3   1  UNL1       -0.2243
     13 H         144.4869  143.2891  159.6605 H       1  UNL1        0.2918
     14 N         142.6673  144.9868  161.9797 N.3     1  UNL1       -0.3190
     15 C         143.5946  143.9913  162.6114 C.3     1  UNL1        0.0939
     16 C         143.9001  144.0762  164.0775 C.3     1  UNL1        0.0196
     17 C         144.8274  143.0807  164.7093 C.3     1  UNL1        0.0016
     18 C         145.4492  142.0003  163.8749 C.3     1  UNL1        0.0042
     19 C         145.1437  141.9155  162.4088 C.3     1  UNL1        0.0478
     20 C         144.2164  142.9110  161.7770 C.3     1  UNL1        0.1704
     21 H         142.3400  145.6438  162.6880 H       1  UNL1        0.1189
     22 H         141.8689  144.4982  161.5743 H       1  UNL1        0.1189
     23 N         138.7781  142.0218  160.2235 N.pl3   1  UNL1       -0.2002
     24 H         138.0832  142.1976  159.5486 H       1  UNL1        0.2983
     25 C         138.4536  142.1421  161.6830 C.2     1  UNL1        0.1392
     26 C         138.0969  143.4780  162.2644 C.2     1  UNL1        0.0378
     27 C         137.7724  143.5983  163.7239 C.2     1  UNL1        0.0030
     28 C         137.8046  142.3826  164.6020 C.2     1  UNL1       -0.0010
     29 C         138.1612  141.0467  164.0207 C.2     1  UNL1        0.0195
     30 C         138.2744  139.6828  164.6346 C.2     1  UNL1        0.0746
     31 CL        138.0352  139.3420  166.0756 Cl      1  UNL1       -0.0809
     32 C         138.6689  138.7195  163.5545 C.2     1  UNL1        0.1051
     33 N         138.7995  139.4881  162.2730 N.2     1  UNL1       -0.2574
     34 C         138.4857  140.9264  162.5611 C.3     1  UNL1        0.1853
@<TRIPOS>BOND
     1    15    14    1
     2    15    16    1
     3    16    17    1
     4    17    18    1
     5    18    19    1
     6    19    20    1
     7    20    12    1
     8    12     1    1
     9     1     2    1
    10     2     3    1
    11     3     4    2
    12     4     5    1
    13     5     6    2
    14     6     7    1
    15     7     8    2
    16     7     9    1
    17     9    10    2
    18    10    23    1
    19    23    25    1
    20    25    26    2
    21    26    27    1
    22    27    28    2
    23    28    29    1
    24    29    30    2
    25    30    31    1
    26    30    32    1
    27    32    33    2
    28    33    34    1
    29    10    11    1
    30    20    15    1
    31    11     1    2
    32     9     3    1
    33    34    25    1
    34    34    29    1
    35    14    21    1
    36    14    22    1
    37    12    13    1
    38    23    24    1
@<TRIPOS>MOLECULE
*****
 34 38 0 0 0
SMALL
GASTEIGER

@<TRIPOS>ATOM
      1 C         137.9970  140.6611  159.9384 C.2     1  UNL1        0.3072
      2 C         138.2618  140.3235  158.5011 C.3     1  UNL1        0.1631
      3 C         138.9542  141.3145  157.6131 C.2     1  UNL1        0.0844
      4 N         139.2189  140.9769  156.1758 N.2     1  UNL1       -0.2296
      5 C         139.9112  141.9679  155.2879 C.2     1  UNL1        0.1880
      6 N         140.3389  143.2966  155.8372 N.am    1  UNL1       -0.1535
      7 C         140.0742  143.6342  157.2745 C.2     1  UNL1        0.2788
      8 O         140.5019  144.9628  157.8239 O.2     1  UNL1       -0.2677
      9 C         139.3818  142.6432  158.1625 C.2     1  UNL1        0.1519
     10 C         139.1171  142.9808  159.5999 C.2     1  UNL1        0.3343
     11 N         138.4247  141.9898  160.4878 N.2     1  UNL1       -0.0041
     12 N         137.3046  139.6701  160.8264 N.pl3   1  UNL1       -0.2243
     13 H         136.4569  139.2600  160.5393 H       1  UNL1        0.2918
     14 N         136.8582  141.4326  163.2126 N.3     1  UNL1       -0.3190
     15 C         137.6806  140.1851  163.3450 C.3     1  UNL1        0.0939
     16 C         138.2798  139.8189  164.6705 C.3     1  UNL1        0.0196
     17 C         139.1022  138.5715  164.8028 C.3     1  UNL1        0.0016
     18 C         139.3255  137.6903  163.6096 C.3     1  UNL1        0.0042
     19 C         138.7263  138.0565  162.2842 C.3     1  UNL1        0.0478
     20 C         137.9038  139.3039  162.1519 C.3     1  UNL1        0.1704
     21 H         136.8109  141.9059  164.1149 H       1  UNL1        0.1189
     22 H         135.9162  141.1880  162.9073 H       1  UNL1        0.1189
     23 N         139.5447  144.3094  160.1492 N.pl3   1  UNL1       -0.2002
     24 H         139.5572  145.1024  159.5659 H       1  UNL1        0.2983
     25 C         139.9535  144.4299  161.5874 C.2     1  UNL1        0.1392
     26 C         138.9210  144.7060  162.6400 C.2     1  UNL1        0.0378
     27 C         139.3297  144.8265  164.0781 C.2     1  UNL1        0.0030
     28 C         140.7709  144.6710  164.4638 C.2     1  UNL1       -0.0010
     29 C         141.8033  144.3949  163.4114 C.2     1  UNL1        0.0195
     30 C         143.2879  144.1952  163.4896 C.2     1  UNL1        0.0746
     31 CL        144.1179  144.2328  164.7385 Cl      1  UNL1       -0.0809
     32 C         143.7967  143.9512  162.0998 C.2     1  UNL1        0.1051
     33 N         142.6266  144.0002  161.1626 N.2     1  UNL1       -0.2574
     34 C         141.3947  144.2744  161.9731 C.3     1  UNL1        0.1853
@<TRIPOS>BOND
     1    15    14    1
     2    15    16    1
     3    16    17    1
     4    17    18    1
     5    18    19    1
     6    19    20    1
     7    20    12    1
     8    12     1    1
     9     1     2    1
    10     2     3    1
    11     3     4    2
    12     4     5    1
    13     5     6    2
    14     6     7    1
    15     7     8    2
    16     7     9    1
    17     9    10    2
    18    10    23    1
    19    23    25    1
    20    25    26    2
    21    26    27    1
    22    27    28    2
    23    28    29    1
    24    29    30    2
    25    30    31    1
    26    30    32    1
    27    32    33    2
    28    33    34    1
    29    10    11    1
    30    20    15    1
    31    11     1    2
    32     9     3    1
    33    34    25    1
    34    34    29    1
    35    14    21    1
    36    14    22    1
    37    12    13    1
    38    23    24    1
@<TRIPOS>MOLECULE
*****
 34 38 0 0 0
SMALL
GASTEIGER

@<TRIPOS>ATOM
      1 C         141.6931  138.2015  163.4543 C.2     1  UNL1        0.3072
      2 C         140.4476  137.5102  163.9241 C.3     1  UNL1        0.1631
      3 C         139.7030  138.0345  165.1161 C.2     1  UNL1        0.0844
      4 N         138.4575  137.3432  165.5860 N.2     1  UNL1       -0.2296
      5 C         137.7130  137.8675  166.7779 C.2     1  UNL1        0.1880
      6 N         138.2139  139.0831  167.5000 N.am    1  UNL1       -0.1535
      7 C         139.4594  139.7744  167.0301 C.2     1  UNL1        0.2788
      8 O         139.9603  140.9900  167.7522 O.2     1  UNL1       -0.2677
      9 C         140.2039  139.2501  165.8382 C.2     1  UNL1        0.1519
     10 C         141.4495  139.9414  165.3682 C.2     1  UNL1        0.3343
     11 N         142.1940  139.4172  164.1763 N.2     1  UNL1       -0.0041
     12 N         142.4377  137.6773  162.2623 N.pl3   1  UNL1       -0.2243
     13 H         142.8366  136.7776  162.2877 H       1  UNL1        0.2918
     14 N         144.6326  139.7140  162.0791 N.3     1  UNL1       -0.3190
     15 C         143.6720  139.5421  160.9400 C.3     1  UNL1        0.0939
     16 C         143.8088  140.3887  159.7093 C.3     1  UNL1        0.0196
     17 C         142.8482  140.2168  158.5701 C.3     1  UNL1        0.0016
     18 C         141.7507  139.1984  158.6618 C.3     1  UNL1        0.0042
     19 C         141.6139  138.3519  159.8925 C.3     1  UNL1        0.0478
     20 C         142.5745  138.5238  161.0316 C.3     1  UNL1        0.1704
     21 H         145.3072  140.4433  161.8479 H       1  UNL1        0.1189
     22 H         145.1245  138.8359  162.2445 H       1  UNL1        0.1189
     23 N         141.9504  141.1571  166.0903 N.pl3   1  UNL1       -0.2002
     24 H         142.0557  141.1398  167.0690 H       1  UNL1        0.2983
     25 C         142.2910  142.3990  165.3212 C.2     1  UNL1        0.1392
     26 C         143.7047  142.9000  165.2935 C.2     1  UNL1        0.0378
     27 C         144.0452  144.1419  164.5244 C.2     1  UNL1        0.0030
     28 C         142.9723  144.8829  163.7830 C.2     1  UNL1       -0.0010
     29 C         141.5587  144.3820  163.8107 C.2     1  UNL1        0.0195
     30 C         140.2986  144.8975  163.1812 C.2     1  UNL1        0.0746
     31 CL        140.1789  146.1215  162.3224 Cl      1  UNL1       -0.0809
     32 C         139.1792  143.9742  163.5612 C.2     1  UNL1        0.1051
     33 N         139.7474  142.8880  164.4256 N.2     1  UNL1       -0.2574
     34 C         141.2180  143.1400  164.5798 C.3     1  UNL1        0.1853
@<TRIPOS>BOND
     1    15    14    1
     2    15    16    1
     3    16    17    1
     4    17    18    1
     5    18    19    1
     6    19    20    1
     7    20    12    1
     8    12     1    1
     9     1     2    1
    10     2     3    1
    11     3     4    2
    12     4     5    1
    13     5     6    2
    14     6     7    1
    15     7     8    2
    16     7     9    1
    17     9    10    2
    18    10    23    1
    19    23    25    1
    20    25    26    2
    21    26    27    1
    22    27    28    2
    23    28    29    1
    24    29    30    2
    25    30    31    1
    26    30    32    1
    27    32    33    2
    28    33    34    1
    29    10    11    1
    30    20    15    1
    31    11     1    2
    32     9     3    1
    33    34    25    1
    34    34    29    1
    35    14    21    1
    36    14    22    1
    37    12    13    1
    38    23    24    1
