@<TRIPOS>MOLECULE
*****
 34 38 0 0 0
SMALL
GASTEIGER

@<TRIPOS>ATOM
      1 C         144.6317  137.9699  155.1030 C.3     1  UNL1        0.0719
      2 C         143.3759  138.0049  155.9227 C.ar    1  UNL1        0.1230
      3 N         143.3591  138.7246  157.2387 N.ar    1  UNL1       -0.2306
      4 C         142.1034  138.7596  158.0584 C.ar    1  UNL1        0.1051
      5 C         142.0866  139.4792  159.3744 C.ar    1  UNL1        0.0256
      6 C         140.8308  139.5142  160.1940 C.ar    1  UNL1        0.0597
      7 C         139.5919  138.8295  159.6978 C.ar    1  UNL1        0.2299
      8 N         139.6087  138.1098  158.3818 N.ar    1  UNL1       -0.2050
      9 C         140.8645  138.0749  157.5622 C.ar    1  UNL1        0.1579
     10 C         140.8813  137.3551  156.2461 C.ar    1  UNL1        0.2810
     11 O         139.6424  136.6704  155.7499 O.2     1  UNL1       -0.2652
     12 N         142.1370  137.3202  155.4265 N.ar    1  UNL1       -0.2827
     13 O         138.3362  138.8645  160.5175 O.3     1  UNL1       -0.4346
     14 C         138.4175  139.0087  162.0083 C.ar    1  UNL1        0.1648
     15 C         138.6846  137.8065  162.8647 C.ar    1  UNL1        0.0414
     16 C         138.7659  137.9508  164.3556 C.ar    1  UNL1        0.0329
     17 C         138.5801  139.2972  164.9900 C.ar    1  UNL1        0.1417
     18 F         138.6614  139.4414  166.4808 F       1  UNL1       -0.2041
     19 C         138.3130  140.4994  164.1336 C.ar    1  UNL1        0.0482
     20 C         138.1273  141.8458  164.7681 C.ar    1  UNL1        0.0054
     21 C         137.8602  143.0480  163.9117 C.ar    1  UNL1        0.0208
     22 C         137.7789  142.9038  162.4209 C.ar    1  UNL1        0.0989
     23 N         137.9646  141.5574  161.7865 N.ar    1  UNL1       -0.2407
     24 C         138.2317  140.3552  162.6428 C.ar    1  UNL1        0.1179
     25 C         142.1539  136.6005  154.1104 C.3     1  UNL1        0.1115
     26 C         142.3913  135.1200  154.0683 C.3     1  UNL1        0.0388
     27 C         141.8240  134.3011  152.9468 C.3     1  UNL1        0.0048
     28 C         142.0614  132.8206  152.9046 C.3     1  UNL1        0.0174
     29 C         142.8660  132.1590  153.9840 C.3     1  UNL1        0.0720
     30 N         143.4332  132.9779  155.1054 N.3     1  UNL1       -0.2739
     31 C         143.1958  134.4584  155.1476 C.3     1  UNL1        0.0739
     32 C         144.2378  132.3163  156.1847 C.3     1  UNL1        0.0576
     33 C         144.4462  133.0111  157.4976 C.3     1  UNL1        0.0173
     34 C         144.8340  130.9598  155.9510 C.3     1  UNL1        0.0173
@<TRIPOS>BOND
     1     1     2    1
     2     2     3   ar
     3     3     4   ar
     4     4     5   ar
     5     5     6   ar
     6     6     7   ar
     7     7    13    1
     8    13    14    1
     9    14    15   ar
    10    15    16   ar
    11    16    17   ar
    12    17    18    1
    13    17    19   ar
    14    19    20   ar
    15    20    21   ar
    16    21    22   ar
    17    22    23   ar
    18    23    24   ar
    19     7     8   ar
    20     8     9   ar
    21     9    10   ar
    22    10    11    2
    23    10    12   ar
    24    12    25    1
    25    26    25    1
    26    26    27    1
    27    27    28    1
    28    28    29    1
    29    29    30    1
    30    30    32    1
    31    32    33    1
    32    32    34    1
    33    30    31    1
    34    12     2   ar
    35    31    26    1
    36     9     4   ar
    37    24    14   ar
    38    24    19   ar
@<TRIPOS>MOLECULE
*****
 34 38 0 0 0
SMALL
GASTEIGER

@<TRIPOS>ATOM
      1 C         144.5643  137.7927  155.1725 C.3     1  UNL1        0.0719
      2 C         143.3125  137.8534  155.9967 C.ar    1  UNL1        0.1230
      3 N         143.3565  138.4144  157.3872 N.ar    1  UNL1       -0.2306
      4 C         142.1047  138.4752  158.2114 C.ar    1  UNL1        0.1051
      5 C         142.1487  139.0362  159.6018 C.ar    1  UNL1        0.0256
      6 C         140.8970  139.0969  160.4260 C.ar    1  UNL1        0.0597
      7 C         139.6012  138.5967  159.8598 C.ar    1  UNL1        0.2299
      8 N         139.5571  138.0357  158.4694 N.ar    1  UNL1       -0.2050
      9 C         140.8089  137.9750  157.6452 C.ar    1  UNL1        0.1579
     10 C         140.7649  137.4139  156.2547 C.ar    1  UNL1        0.2810
     11 O         139.4690  136.9137  155.6885 O.2     1  UNL1       -0.2652
     12 N         142.0166  137.3532  155.4305 N.ar    1  UNL1       -0.2827
     13 O         138.3493  138.6575  160.6841 O.3     1  UNL1       -0.4346
     14 C         138.1892  139.7235  161.7271 C.ar    1  UNL1        0.1648
     15 C         137.8759  141.1321  161.3179 C.ar    1  UNL1        0.0414
     16 C         137.7158  142.1982  162.3611 C.ar    1  UNL1        0.0329
     17 C         137.8689  141.8554  163.8133 C.ar    1  UNL1        0.1417
     18 F         137.7087  142.9214  164.8564 F       1  UNL1       -0.2041
     19 C         138.1821  140.4467  164.2225 C.ar    1  UNL1        0.0482
     20 C         138.3352  140.1040  165.6748 C.ar    1  UNL1        0.0054
     21 C         138.6485  138.6953  166.0839 C.ar    1  UNL1        0.0208
     22 C         138.8087  137.6293  165.0409 C.ar    1  UNL1        0.0989
     23 N         138.6556  137.9721  163.5887 N.ar    1  UNL1       -0.2407
     24 C         138.3423  139.3808  163.1795 C.ar    1  UNL1        0.1179
     25 C         141.9726  136.7922  154.0400 C.3     1  UNL1        0.1115
     26 C         142.1379  135.3175  153.8207 C.3     1  UNL1        0.0388
     27 C         141.6472  134.6886  152.5504 C.3     1  UNL1        0.0048
     28 C         141.8125  133.2139  152.3310 C.3     1  UNL1        0.0174
     29 C         142.4686  132.3682  153.3820 C.3     1  UNL1        0.0720
     30 N         142.9592  132.9972  154.6523 N.3     1  UNL1       -0.2739
     31 C         142.7939  134.4719  154.8716 C.3     1  UNL1        0.0739
     32 C         143.6152  132.1516  155.7032 C.3     1  UNL1        0.0576
     33 C         143.3756  132.4402  157.1555 C.3     1  UNL1        0.0173
     34 C         144.5110  131.0172  155.3018 C.3     1  UNL1        0.0173
@<TRIPOS>BOND
     1     1     2    1
     2     2     3   ar
     3     3     4   ar
     4     4     5   ar
     5     5     6   ar
     6     6     7   ar
     7     7    13    1
     8    13    14    1
     9    14    15   ar
    10    15    16   ar
    11    16    17   ar
    12    17    18    1
    13    17    19   ar
    14    19    20   ar
    15    20    21   ar
    16    21    22   ar
    17    22    23   ar
    18    23    24   ar
    19     7     8   ar
    20     8     9   ar
    21     9    10   ar
    22    10    11    2
    23    10    12   ar
    24    12    25    1
    25    26    25    1
    26    26    27    1
    27    27    28    1
    28    28    29    1
    29    29    30    1
    30    30    32    1
    31    32    33    1
    32    32    34    1
    33    30    31    1
    34    12     2   ar
    35    31    26    1
    36     9     4   ar
    37    24    14   ar
    38    24    19   ar
@<TRIPOS>MOLECULE
*****
 34 38 0 0 0
SMALL
GASTEIGER

@<TRIPOS>ATOM
      1 C         139.0987  137.0457  155.6713 C.3     1  UNL1        0.0719
      2 C         140.2206  137.5208  156.5464 C.ar    1  UNL1        0.1230
      3 N         139.9296  138.0400  157.9232 N.ar    1  UNL1       -0.2306
      4 C         141.0515  138.5152  158.7982 C.ar    1  UNL1        0.1051
      5 C         140.7605  139.0344  160.1751 C.ar    1  UNL1        0.0256
      6 C         141.8824  139.5095  161.0500 C.ar    1  UNL1        0.0597
      7 C         143.2952  139.4655  160.5482 C.ar    1  UNL1        0.2299
      8 N         143.5862  138.9463  159.1713 N.ar    1  UNL1       -0.2050
      9 C         142.4644  138.4712  158.2964 C.ar    1  UNL1        0.1579
     10 C         142.7553  137.9520  156.9194 C.ar    1  UNL1        0.2810
     11 O         144.1682  137.9079  156.4176 O.2     1  UNL1       -0.2652
     12 N         141.6335  137.4768  156.0445 N.ar    1  UNL1       -0.2827
     13 O         144.4171  139.9407  161.4232 O.3     1  UNL1       -0.4346
     14 C         144.2814  141.2256  162.1851 C.ar    1  UNL1        0.1648
     15 C         144.5913  142.5313  161.5149 C.ar    1  UNL1        0.0414
     16 C         144.4556  143.8162  162.2768 C.ar    1  UNL1        0.0329
     17 C         144.0100  143.7955  163.7089 C.ar    1  UNL1        0.1417
     18 F         143.8744  145.0804  164.4708 F       1  UNL1       -0.2041
     19 C         143.7002  142.4898  164.3792 C.ar    1  UNL1        0.0482
     20 C         143.2546  142.4691  165.8113 C.ar    1  UNL1        0.0054
     21 C         142.9447  141.1634  166.4815 C.ar    1  UNL1        0.0208
     22 C         143.0804  139.8785  165.7196 C.ar    1  UNL1        0.0989
     23 N         143.5259  139.8992  164.2875 N.ar    1  UNL1       -0.2407
     24 C         143.8358  141.2049  163.6173 C.ar    1  UNL1        0.1179
     25 C         141.9244  136.9576  154.6676 C.3     1  UNL1        0.1115
     26 C         142.2200  135.5014  154.4621 C.3     1  UNL1        0.0388
     27 C         141.6781  134.7887  153.2585 C.3     1  UNL1        0.0048
     28 C         141.9736  133.3326  153.0530 C.3     1  UNL1        0.0174
     29 C         142.8110  132.5891  154.0511 C.3     1  UNL1        0.0720
     30 N         143.3529  133.3018  155.2545 N.3     1  UNL1       -0.2739
     31 C         143.0573  134.7580  155.4600 C.3     1  UNL1        0.0739
     32 C         144.1902  132.5583  156.2525 C.3     1  UNL1        0.0576
     33 C         144.3912  133.1193  157.6291 C.3     1  UNL1        0.0173
     34 C         144.8267  131.2538  155.8740 C.3     1  UNL1        0.0173
@<TRIPOS>BOND
     1     1     2    1
     2     2     3   ar
     3     3     4   ar
     4     4     5   ar
     5     5     6   ar
     6     6     7   ar
     7     7    13    1
     8    13    14    1
     9    14    15   ar
    10    15    16   ar
    11    16    17   ar
    12    17    18    1
    13    17    19   ar
    14    19    20   ar
    15    20    21   ar
    16    21    22   ar
    17    22    23   ar
    18    23    24   ar
    19     7     8   ar
    20     8     9   ar
    21     9    10   ar
    22    10    11    2
    23    10    12   ar
    24    12    25    1
    25    26    25    1
    26    26    27    1
    27    27    28    1
    28    28    29    1
    29    29    30    1
    30    30    32    1
    31    32    33    1
    32    32    34    1
    33    30    31    1
    34    12     2   ar
    35    31    26    1
    36     9     4   ar
    37    24    14   ar
    38    24    19   ar
@<TRIPOS>MOLECULE
*****
 34 38 0 0 0
SMALL
GASTEIGER

@<TRIPOS>ATOM
      1 C         139.2249  136.9067  155.3452 C.3     1  UNL1        0.0719
      2 C         140.3182  137.3980  156.2471 C.ar    1  UNL1        0.1230
      3 N         139.9819  137.9579  157.5974 N.ar    1  UNL1       -0.2306
      4 C         141.0753  138.4492  158.4992 C.ar    1  UNL1        0.1051
      5 C         140.7389  139.0091  159.8495 C.ar    1  UNL1        0.0256
      6 C         141.8323  139.5003  160.7512 C.ar    1  UNL1        0.0597
      7 C         143.2620  139.4318  160.3026 C.ar    1  UNL1        0.2299
      8 N         143.5983  138.8719  158.9523 N.ar    1  UNL1       -0.2050
      9 C         142.5050  138.3807  158.0506 C.ar    1  UNL1        0.1579
     10 C         142.8413  137.8208  156.7002 C.ar    1  UNL1        0.2810
     11 O         144.2710  137.7522  156.2516 O.2     1  UNL1       -0.2652
     12 N         141.7480  137.3295  155.7985 N.ar    1  UNL1       -0.2827
     13 O         144.3554  139.9231  161.2045 O.3     1  UNL1       -0.4346
     14 C         144.0608  140.2272  162.6434 C.ar    1  UNL1        0.1648
     15 C         143.8325  139.1075  163.6151 C.ar    1  UNL1        0.0414
     16 C         143.5379  139.4116  165.0542 C.ar    1  UNL1        0.0329
     17 C         143.4717  140.8354  165.5215 C.ar    1  UNL1        0.1417
     18 F         143.1771  141.1394  166.9605 F       1  UNL1       -0.2041
     19 C         143.7000  141.9551  164.5498 C.ar    1  UNL1        0.0482
     20 C         143.6338  143.3788  165.0172 C.ar    1  UNL1        0.0054
     21 C         143.8621  144.4985  164.0455 C.ar    1  UNL1        0.0208
     22 C         144.1567  144.1945  162.6065 C.ar    1  UNL1        0.0989
     23 N         144.2229  142.7707  162.1392 N.ar    1  UNL1       -0.2407
     24 C         143.9946  141.6510  163.1108 C.ar    1  UNL1        0.1179
     25 C         142.0843  136.7696  154.4481 C.3     1  UNL1        0.1115
     26 C         142.3354  135.2996  154.2870 C.3     1  UNL1        0.0388
     27 C         141.7702  134.5671  153.1062 C.3     1  UNL1        0.0048
     28 C         142.0212  133.0971  152.9451 C.3     1  UNL1        0.0174
     29 C         142.8375  132.3595  153.9649 C.3     1  UNL1        0.0720
     30 N         143.4026  133.0919  155.1456 N.3     1  UNL1       -0.2739
     31 C         143.1516  134.5620  155.3066 C.3     1  UNL1        0.0739
     32 C         144.2188  132.3543  156.1652 C.3     1  UNL1        0.0576
     33 C         144.4216  132.9411  157.5307 C.3     1  UNL1        0.0173
     34 C         144.8324  131.0299  155.8194 C.3     1  UNL1        0.0173
@<TRIPOS>BOND
     1     1     2    1
     2     2     3   ar
     3     3     4   ar
     4     4     5   ar
     5     5     6   ar
     6     6     7   ar
     7     7    13    1
     8    13    14    1
     9    14    15   ar
    10    15    16   ar
    11    16    17   ar
    12    17    18    1
    13    17    19   ar
    14    19    20   ar
    15    20    21   ar
    16    21    22   ar
    17    22    23   ar
    18    23    24   ar
    19     7     8   ar
    20     8     9   ar
    21     9    10   ar
    22    10    11    2
    23    10    12   ar
    24    12    25    1
    25    26    25    1
    26    26    27    1
    27    27    28    1
    28    28    29    1
    29    29    30    1
    30    30    32    1
    31    32    33    1
    32    32    34    1
    33    30    31    1
    34    12     2   ar
    35    31    26    1
    36     9     4   ar
    37    24    14   ar
    38    24    19   ar
@<TRIPOS>MOLECULE
*****
 34 38 0 0 0
SMALL
GASTEIGER

@<TRIPOS>ATOM
      1 C         143.7140  145.0410  163.9157 C.3     1  UNL1        0.0719
      2 C         143.7556  143.8273  163.0352 C.ar    1  UNL1        0.1230
      3 N         143.6364  143.9757  161.5473 N.ar    1  UNL1       -0.2306
      4 C         143.6779  142.7619  160.6668 C.ar    1  UNL1        0.1051
      5 C         143.5587  142.9103  159.1790 C.ar    1  UNL1        0.0256
      6 C         143.6002  141.6966  158.2986 C.ar    1  UNL1        0.0597
      7 C         143.7609  140.3345  158.9060 C.ar    1  UNL1        0.2299
      8 N         143.8801  140.1862  160.3939 N.ar    1  UNL1       -0.2050
      9 C         143.8386  141.3999  161.2743 C.ar    1  UNL1        0.1579
     10 C         143.9578  141.2516  162.7622 C.ar    1  UNL1        0.2810
     11 O         144.1185  139.8895  163.3696 O.2     1  UNL1       -0.2652
     12 N         143.9163  142.4653  163.6426 N.ar    1  UNL1       -0.2827
     13 O         143.8025  139.1208  158.0255 O.3     1  UNL1       -0.4346
     14 C         142.5273  138.5326  157.4985 C.ar    1  UNL1        0.1648
     15 C         141.2095  139.1482  157.8653 C.ar    1  UNL1        0.0414
     16 C         139.9342  138.5599  157.3382 C.ar    1  UNL1        0.0329
     17 C         139.9768  137.3560  156.4445 C.ar    1  UNL1        0.1417
     18 F         138.7016  136.7678  155.9175 F       1  UNL1       -0.2041
     19 C         141.2945  136.7404  156.0778 C.ar    1  UNL1        0.0482
     20 C         141.3371  135.5365  155.1841 C.ar    1  UNL1        0.0054
     21 C         142.6548  134.9208  154.8173 C.ar    1  UNL1        0.0208
     22 C         143.9300  135.5090  155.3443 C.ar    1  UNL1        0.0989
     23 N         143.8875  136.7129  156.2380 N.ar    1  UNL1       -0.2407
     24 C         142.5698  137.3286  156.6048 C.ar    1  UNL1        0.1179
     25 C         144.0354  142.3169  165.1305 C.3     1  UNL1        0.1115
     26 C         142.8100  142.0731  165.9605 C.3     1  UNL1        0.0388
     27 C         142.8898  142.1497  167.4564 C.3     1  UNL1        0.0048
     28 C         141.6644  141.9059  168.2864 C.3     1  UNL1        0.0174
     29 C         140.3591  141.5853  167.6203 C.3     1  UNL1        0.0720
     30 N         140.2793  141.5087  166.1245 N.3     1  UNL1       -0.2739
     31 C         141.5047  141.7526  165.2945 C.3     1  UNL1        0.0739
     32 C         138.9740  141.1882  165.4585 C.3     1  UNL1        0.0576
     33 C         138.3551  139.8332  165.6344 C.3     1  UNL1        0.0173
     34 C         138.2876  142.2227  164.6166 C.3     1  UNL1        0.0173
@<TRIPOS>BOND
     1     1     2    1
     2     2     3   ar
     3     3     4   ar
     4     4     5   ar
     5     5     6   ar
     6     6     7   ar
     7     7    13    1
     8    13    14    1
     9    14    15   ar
    10    15    16   ar
    11    16    17   ar
    12    17    18    1
    13    17    19   ar
    14    19    20   ar
    15    20    21   ar
    16    21    22   ar
    17    22    23   ar
    18    23    24   ar
    19     7     8   ar
    20     8     9   ar
    21     9    10   ar
    22    10    11    2
    23    10    12   ar
    24    12    25    1
    25    26    25    1
    26    26    27    1
    27    27    28    1
    28    28    29    1
    29    29    30    1
    30    30    32    1
    31    32    33    1
    32    32    34    1
    33    30    31    1
    34    12     2   ar
    35    31    26    1
    36     9     4   ar
    37    24    14   ar
    38    24    19   ar
@<TRIPOS>MOLECULE
*****
 34 38 0 0 0
SMALL
GASTEIGER

@<TRIPOS>ATOM
      1 C         139.2708  138.1624  165.2057 C.3     1  UNL1        0.0719
      2 C         139.9952  138.1930  163.8925 C.ar    1  UNL1        0.1230
      3 N         139.2200  138.2453  162.6095 N.ar    1  UNL1       -0.2306
      4 C         139.9444  138.2759  161.2963 C.ar    1  UNL1        0.1051
      5 C         139.1692  138.3282  160.0132 C.ar    1  UNL1        0.0256
      6 C         139.8936  138.3588  158.7001 C.ar    1  UNL1        0.0597
      7 C         141.3932  138.3373  158.6700 C.ar    1  UNL1        0.2299
      8 N         142.1683  138.2850  159.9531 N.ar    1  UNL1       -0.2050
      9 C         141.4440  138.2544  161.2662 C.ar    1  UNL1        0.1579
     10 C         142.2191  138.2021  162.5494 C.ar    1  UNL1        0.2810
     11 O         143.7187  138.1805  162.5194 O.2     1  UNL1       -0.2652
     12 N         141.4947  138.1715  163.8625 N.ar    1  UNL1       -0.2827
     13 O         142.1175  138.3679  157.3568 O.3     1  UNL1       -0.4346
     14 C         141.7121  137.4347  156.2547 C.ar    1  UNL1        0.1648
     15 C         140.8487  137.9298  155.1324 C.ar    1  UNL1        0.0414
     16 C         140.4433  136.9965  154.0302 C.ar    1  UNL1        0.0329
     17 C         140.9012  135.5683  154.0504 C.ar    1  UNL1        0.1417
     18 F         140.4958  134.6351  152.9482 F       1  UNL1       -0.2041
     19 C         141.7646  135.0733  155.1727 C.ar    1  UNL1        0.0482
     20 C         142.2225  133.6451  155.1928 C.ar    1  UNL1        0.0054
     21 C         143.0859  133.1500  156.3151 C.ar    1  UNL1        0.0208
     22 C         143.4913  134.0832  157.4173 C.ar    1  UNL1        0.0989
     23 N         143.0334  135.5114  157.3971 N.ar    1  UNL1       -0.2407
     24 C         142.1700  136.0064  156.2748 C.ar    1  UNL1        0.1179
     25 C         142.2699  138.1192  165.1457 C.3     1  UNL1        0.1115
     26 C         142.5102  139.3760  165.9284 C.3     1  UNL1        0.0388
     27 C         142.4122  139.3577  167.4252 C.3     1  UNL1        0.0048
     28 C         142.6525  140.6145  168.2079 C.3     1  UNL1        0.0174
     29 C         142.9907  141.8896  167.4939 C.3     1  UNL1        0.0720
     30 N         143.0887  141.9079  165.9973 N.3     1  UNL1       -0.2739
     31 C         142.8484  140.6511  165.2145 C.3     1  UNL1        0.0739
     32 C         143.4269  143.1830  165.2834 C.3     1  UNL1        0.0576
     33 C         144.7439  143.8559  165.5334 C.3     1  UNL1        0.0173
     34 C         142.4480  143.7853  164.3194 C.3     1  UNL1        0.0173
@<TRIPOS>BOND
     1     1     2    1
     2     2     3   ar
     3     3     4   ar
     4     4     5   ar
     5     5     6   ar
     6     6     7   ar
     7     7    13    1
     8    13    14    1
     9    14    15   ar
    10    15    16   ar
    11    16    17   ar
    12    17    18    1
    13    17    19   ar
    14    19    20   ar
    15    20    21   ar
    16    21    22   ar
    17    22    23   ar
    18    23    24   ar
    19     7     8   ar
    20     8     9   ar
    21     9    10   ar
    22    10    11    2
    23    10    12   ar
    24    12    25    1
    25    26    25    1
    26    26    27    1
    27    27    28    1
    28    28    29    1
    29    29    30    1
    30    30    32    1
    31    32    33    1
    32    32    34    1
    33    30    31    1
    34    12     2   ar
    35    31    26    1
    36     9     4   ar
    37    24    14   ar
    38    24    19   ar
@<TRIPOS>MOLECULE
*****
 34 38 0 0 0
SMALL
GASTEIGER

@<TRIPOS>ATOM
      1 C         139.0000  142.5001  165.0834 C.3     1  UNL1        0.0719
      2 C         138.8069  141.8272  163.7568 C.ar    1  UNL1        0.1230
      3 N         138.6611  142.6513  162.5120 N.ar    1  UNL1       -0.2306
      4 C         138.4680  141.9783  161.1853 C.ar    1  UNL1        0.1051
      5 C         138.3222  142.8024  159.9405 C.ar    1  UNL1        0.0256
      6 C         138.1291  142.1294  158.6140 C.ar    1  UNL1        0.0597
      7 C         138.0818  140.6324  158.5322 C.ar    1  UNL1        0.2299
      8 N         138.2277  139.8083  159.7770 N.ar    1  UNL1       -0.2050
      9 C         138.4207  140.4813  161.1036 C.ar    1  UNL1        0.1579
     10 C         138.5666  139.6572  162.3485 C.ar    1  UNL1        0.2810
     11 O         138.5193  138.1602  162.2667 O.2     1  UNL1       -0.2652
     12 N         138.7596  140.3302  163.6750 N.ar    1  UNL1       -0.2827
     13 O         137.8888  139.9595  157.2055 O.3     1  UNL1       -0.4346
     14 C         137.1965  140.6852  156.0902 C.ar    1  UNL1        0.1648
     15 C         138.0022  141.4111  155.0538 C.ar    1  UNL1        0.0414
     16 C         137.3099  142.1368  153.9384 C.ar    1  UNL1        0.0329
     17 C         135.8120  142.1366  153.8593 C.ar    1  UNL1        0.1417
     18 F         135.1198  142.8623  152.7440 F       1  UNL1       -0.2041
     19 C         135.0064  141.4107  154.8957 C.ar    1  UNL1        0.0482
     20 C         133.5085  141.4105  154.8166 C.ar    1  UNL1        0.0054
     21 C         132.7028  140.6846  155.8529 C.ar    1  UNL1        0.0208
     22 C         133.3950  139.9589  156.9683 C.ar    1  UNL1        0.0989
     23 N         134.8929  139.9591  157.0474 N.ar    1  UNL1       -0.2407
     24 C         135.6986  140.6850  156.0110 C.ar    1  UNL1        0.1179
     25 C         138.9055  139.5061  164.9199 C.3     1  UNL1        0.1115
     26 C         140.2678  139.2430  165.4899 C.3     1  UNL1        0.0388
     27 C         141.2519  138.4076  164.7259 C.3     1  UNL1        0.0048
     28 C         142.6142  138.1446  165.2959 C.3     1  UNL1        0.0174
     29 C         142.9924  138.7169  166.6298 C.3     1  UNL1        0.0720
     30 N         142.0083  139.5523  167.3938 N.3     1  UNL1       -0.2739
     31 C         140.6460  139.8154  166.8238 C.3     1  UNL1        0.0739
     32 C         142.3866  140.1246  168.7277 C.3     1  UNL1        0.0576
     33 C         142.2426  139.2939  169.9683 C.3     1  UNL1        0.0173
     34 C         142.9088  141.5277  168.8210 C.3     1  UNL1        0.0173
@<TRIPOS>BOND
     1     1     2    1
     2     2     3   ar
     3     3     4   ar
     4     4     5   ar
     5     5     6   ar
     6     6     7   ar
     7     7    13    1
     8    13    14    1
     9    14    15   ar
    10    15    16   ar
    11    16    17   ar
    12    17    18    1
    13    17    19   ar
    14    19    20   ar
    15    20    21   ar
    16    21    22   ar
    17    22    23   ar
    18    23    24   ar
    19     7     8   ar
    20     8     9   ar
    21     9    10   ar
    22    10    11    2
    23    10    12   ar
    24    12    25    1
    25    26    25    1
    26    26    27    1
    27    27    28    1
    28    28    29    1
    29    29    30    1
    30    30    32    1
    31    32    33    1
    32    32    34    1
    33    30    31    1
    34    12     2   ar
    35    31    26    1
    36     9     4   ar
    37    24    14   ar
    38    24    19   ar
@<TRIPOS>MOLECULE
*****
 34 38 0 0 0
SMALL
GASTEIGER

@<TRIPOS>ATOM
      1 C         139.8122  140.1923  156.3136 C.3     1  UNL1        0.0719
      2 C         139.9627  139.5954  157.6815 C.ar    1  UNL1        0.1230
      3 N         138.8470  139.7115  158.6773 N.ar    1  UNL1       -0.2306
      4 C         138.9975  139.1147  160.0453 C.ar    1  UNL1        0.1051
      5 C         137.8817  139.2307  161.0411 C.ar    1  UNL1        0.0256
      6 C         138.0323  138.6339  162.4089 C.ar    1  UNL1        0.0597
      7 C         139.2985  137.9210  162.7810 C.ar    1  UNL1        0.2299
      8 N         140.4142  137.8049  161.7852 N.ar    1  UNL1       -0.2050
      9 C         140.2637  138.4018  160.4173 C.ar    1  UNL1        0.1579
     10 C         141.3794  138.2857  159.4215 C.ar    1  UNL1        0.2810
     11 O         142.6457  137.5728  159.7935 O.2     1  UNL1       -0.2652
     12 N         141.2289  138.8825  158.0536 N.ar    1  UNL1       -0.2827
     13 O         139.4490  137.3242  164.1490 O.3     1  UNL1       -0.4346
     14 C         139.4033  138.2063  165.3613 C.ar    1  UNL1        0.1648
     15 C         138.1815  138.2224  166.2314 C.ar    1  UNL1        0.0414
     16 C         138.1359  139.1046  167.4438 C.ar    1  UNL1        0.0329
     17 C         139.3119  139.9706  167.7859 C.ar    1  UNL1        0.1417
     18 F         139.2661  140.8527  168.9983 F       1  UNL1       -0.2041
     19 C         140.5336  139.9544  166.9158 C.ar    1  UNL1        0.0482
     20 C         141.7095  140.8204  167.2579 C.ar    1  UNL1        0.0054
     21 C         142.9312  140.8043  166.3878 C.ar    1  UNL1        0.0208
     22 C         142.9770  139.9221  165.1755 C.ar    1  UNL1        0.0989
     23 N         141.8010  139.0562  164.8333 N.ar    1  UNL1       -0.2407
     24 C         140.5793  139.0723  165.7035 C.ar    1  UNL1        0.1179
     25 C         142.3447  138.7665  157.0577 C.3     1  UNL1        0.1115
     26 C         142.4253  137.5691  156.1579 C.3     1  UNL1        0.0388
     27 C         142.1952  137.7221  154.6835 C.3     1  UNL1        0.0048
     28 C         142.2758  136.5246  153.7836 C.3     1  UNL1        0.0174
     29 C         142.5864  135.1742  154.3582 C.3     1  UNL1        0.0720
     30 N         142.8164  135.0213  155.8325 N.3     1  UNL1       -0.2739
     31 C         142.7359  136.2187  156.7324 C.3     1  UNL1        0.0739
     32 C         143.1270  133.6710  156.4070 C.3     1  UNL1        0.0576
     33 C         142.4923  132.4436  155.8234 C.3     1  UNL1        0.0173
     34 C         144.0724  133.5480  157.5651 C.3     1  UNL1        0.0173
@<TRIPOS>BOND
     1     1     2    1
     2     2     3   ar
     3     3     4   ar
     4     4     5   ar
     5     5     6   ar
     6     6     7   ar
     7     7    13    1
     8    13    14    1
     9    14    15   ar
    10    15    16   ar
    11    16    17   ar
    12    17    18    1
    13    17    19   ar
    14    19    20   ar
    15    20    21   ar
    16    21    22   ar
    17    22    23   ar
    18    23    24   ar
    19     7     8   ar
    20     8     9   ar
    21     9    10   ar
    22    10    11    2
    23    10    12   ar
    24    12    25    1
    25    26    25    1
    26    26    27    1
    27    27    28    1
    28    28    29    1
    29    29    30    1
    30    30    32    1
    31    32    33    1
    32    32    34    1
    33    30    31    1
    34    12     2   ar
    35    31    26    1
    36     9     4   ar
    37    24    14   ar
    38    24    19   ar
@<TRIPOS>MOLECULE
*****
 34 38 0 0 0
SMALL
GASTEIGER

@<TRIPOS>ATOM
      1 C         139.8176  137.3523  155.0189 C.3     1  UNL1        0.0719
      2 C         140.1421  137.8906  156.3809 C.ar    1  UNL1        0.1230
      3 N         139.1074  138.6565  157.1507 N.ar    1  UNL1       -0.2306
      4 C         139.4320  139.1948  158.5127 C.ar    1  UNL1        0.1051
      5 C         138.3973  139.9607  159.2826 C.ar    1  UNL1        0.0256
      6 C         138.7219  140.4990  160.6445 C.ar    1  UNL1        0.0597
      7 C         140.0812  140.2714  161.2365 C.ar    1  UNL1        0.2299
      8 N         141.1159  139.5056  160.4666 N.ar    1  UNL1       -0.2050
      9 C         140.7913  138.9673  159.1047 C.ar    1  UNL1        0.1579
     10 C         141.8261  138.2014  158.3347 C.ar    1  UNL1        0.2810
     11 O         143.1854  137.9739  158.9267 O.2     1  UNL1       -0.2652
     12 N         141.5015  137.6631  156.9729 N.ar    1  UNL1       -0.2827
     13 O         140.4058  140.8098  162.5985 O.3     1  UNL1       -0.4346
     14 C         141.4785  140.1638  163.4242 C.ar    1  UNL1        0.1648
     15 C         141.1487  138.9880  164.2952 C.ar    1  UNL1        0.0414
     16 C         142.2216  138.3420  165.1210 C.ar    1  UNL1        0.0329
     17 C         143.6241  138.8718  165.0757 C.ar    1  UNL1        0.1417
     18 F         144.6969  138.2258  165.9014 F       1  UNL1       -0.2041
     19 C         143.9539  140.0477  164.2047 C.ar    1  UNL1        0.0482
     20 C         145.3565  140.5775  164.1594 C.ar    1  UNL1        0.0054
     21 C         145.6862  141.7533  163.2884 C.ar    1  UNL1        0.0208
     22 C         144.6135  142.3993  162.4626 C.ar    1  UNL1        0.0989
     23 N         143.2110  141.8695  162.5079 N.ar    1  UNL1       -0.2407
     24 C         142.8812  140.6936  163.3789 C.ar    1  UNL1        0.1179
     25 C         142.5362  136.8972  156.2029 C.3     1  UNL1        0.1115
     26 C         142.5848  135.4008  156.2955 C.3     1  UNL1        0.0388
     27 C         143.3702  134.7424  157.3909 C.3     1  UNL1        0.0048
     28 C         143.4188  133.2460  157.4836 C.3     1  UNL1        0.0174
     29 C         142.6821  132.4082  156.4809 C.3     1  UNL1        0.0720
     30 N         141.8968  133.0666  155.3856 N.3     1  UNL1       -0.2739
     31 C         141.8482  134.5630  155.2929 C.3     1  UNL1        0.0739
     32 C         141.1602  132.2288  154.3829 C.3     1  UNL1        0.0576
     33 C         140.5737  130.9106  154.7934 C.3     1  UNL1        0.0173
     34 C         141.0101  132.7091  152.9698 C.3     1  UNL1        0.0173
@<TRIPOS>BOND
     1     1     2    1
     2     2     3   ar
     3     3     4   ar
     4     4     5   ar
     5     5     6   ar
     6     6     7   ar
     7     7    13    1
     8    13    14    1
     9    14    15   ar
    10    15    16   ar
    11    16    17   ar
    12    17    18    1
    13    17    19   ar
    14    19    20   ar
    15    20    21   ar
    16    21    22   ar
    17    22    23   ar
    18    23    24   ar
    19     7     8   ar
    20     8     9   ar
    21     9    10   ar
    22    10    11    2
    23    10    12   ar
    24    12    25    1
    25    26    25    1
    26    26    27    1
    27    27    28    1
    28    28    29    1
    29    29    30    1
    30    30    32    1
    31    32    33    1
    32    32    34    1
    33    30    31    1
    34    12     2   ar
    35    31    26    1
    36     9     4   ar
    37    24    14   ar
    38    24    19   ar
