@<TRIPOS>MOLECULE
*****
 37 40 0 0 0
SMALL
GASTEIGER

@<TRIPOS>ATOM
      1 C         141.3583  141.9532  164.2283 C.3     1  UNL1        0.0545
      2 C         141.6298  141.1301  165.4525 C.3     1  UNL1        0.0162
      3 C         141.0211  139.7751  165.2445 C.3     1  UNL1        0.0100
      4 C         140.3734  139.7606  163.8916 C.3     1  UNL1        0.0704
      5 C         140.5818  141.1068  163.2636 C.3     1  UNL1        0.0243
      6 C         139.6505  139.4513  162.6143 C.2     1  UNL1        0.2248
      7 O         138.1534  139.5288  162.5619 O.2     1  UNL1       -0.2749
      8 N         140.4247  139.0645  161.3891 N.am    1  UNL1       -0.2760
      9 C         139.7019  138.7552  160.1116 C.3     1  UNL1        0.1149
     10 C         140.4762  138.3684  158.8865 C.3     1  UNL1        0.1137
     11 N         141.9733  138.2909  158.9389 N.pl3   1  UNL1       -0.2897
     12 C         142.6961  138.6002  160.2163 C.3     1  UNL1        0.1137
     13 C         141.9218  138.9870  161.4414 C.3     1  UNL1        0.1149
     14 C         142.7476  137.9041  157.7138 C.ar    1  UNL1        0.1317
     15 C         142.8259  136.4645  157.2996 C.ar    1  UNL1        0.0382
     16 C         143.6002  136.0777  156.0745 C.ar    1  UNL1        0.0757
     17 C         144.2961  137.1304  155.2636 C.ar    1  UNL1        0.0246
     18 C         144.2177  138.5699  155.6778 C.ar    1  UNL1        0.1002
     19 N         143.4435  138.9567  156.9029 N.ar    1  UNL1       -0.2292
     20 C         143.6786  134.6381  155.6602 C.3     1  UNL1        0.4187
     21 F         143.7570  133.1986  155.2460 F       1  UNL1       -0.1659
     22 F         144.1343  134.2659  157.0400 F       1  UNL1       -0.1659
     23 F         143.2229  135.0104  154.2805 F       1  UNL1       -0.1659
     24 C         140.0139  138.3499  164.2526 C.3     1  UNL1        0.0082
     25 C         141.0775  137.2931  164.2987 C.3     1  UNL1        0.0005
     26 C         139.1724  137.8982  164.4905 C.3     1  UNL1        0.0005
     27 N         141.7879  143.3733  164.0074 N.3     1  UNL1       -0.2975
     28 H         141.5881  143.8789  164.8705 H       1  UNL1        0.1232
     29 C         139.9670  145.0079  163.1340 C.3     1  UNL1        0.1590
     30 C         139.3678  145.8073  162.0152 C.3     1  UNL1        0.1729
     31 O         139.9902  145.7716  160.6509 O.3     1  UNL1       -0.3511
     32 C         141.2118  144.9366  160.4054 C.3     1  UNL1        0.1437
     33 C         141.8110  144.1371  161.5243 C.3     1  UNL1        0.0503
     34 C         141.1886  144.1728  162.8886 C.3     1  UNL1        0.0865
     35 O         139.3446  145.0435  164.4983 O.3     1  UNL1       -0.3523
     36 C         137.7012  143.1432  163.8365 C.3     1  UNL1        0.0346
     37 C         138.3308  144.0088  164.8874 C.3     1  UNL1        0.1423
@<TRIPOS>BOND
     1    36    37    1
     2    37    35    1
     3    29    35    1
     4    29    30    1
     5    30    31    1
     6    31    32    1
     7    32    33    1
     8    33    34    1
     9    34    27    1
    10     1    27    1
    11     1     2    1
    12     2     3    1
    13     3     4    1
    14     4     6    1
    15     6     7    2
    16     6     8   am
    17     8     9    1
    18     9    10    1
    19    10    11    1
    20    11    14    1
    21    14    15   ar
    22    15    16   ar
    23    16    20    1
    24    20    21    1
    25    20    22    1
    26    20    23    1
    27    16    17   ar
    28    17    18   ar
    29    18    19   ar
    30    11    12    1
    31    12    13    1
    32     4    24    1
    33    24    25    1
    34    24    26    1
    35     4     5    1
    36    34    29    1
    37     5     1    1
    38    13     8    1
    39    19    14   ar
    40    27    28    1
@<TRIPOS>MOLECULE
*****
 37 40 0 0 0
SMALL
GASTEIGER

@<TRIPOS>ATOM
      1 C         140.5257  141.3566  160.3099 C.3     1  UNL1        0.0545
      2 C         141.7045  141.3421  159.3824 C.3     1  UNL1        0.0162
      3 C         142.5899  140.1969  159.7758 C.3     1  UNL1        0.0100
      4 C         141.9583  139.5037  160.9465 C.3     1  UNL1        0.0704
      5 C         140.6826  140.2205  161.2766 C.3     1  UNL1        0.0243
      6 C         141.5766  138.6222  162.0986 C.2     1  UNL1        0.2248
      7 O         141.0529  137.2399  161.8439 O.2     1  UNL1       -0.2749
      8 N         141.7187  139.1230  163.5054 N.am    1  UNL1       -0.2760
      9 C         141.3370  138.2416  164.6575 C.3     1  UNL1        0.1149
     10 C         141.4791  138.7425  166.0642 C.3     1  UNL1        0.1137
     11 N         142.0028  140.1248  166.3189 N.pl3   1  UNL1       -0.2897
     12 C         142.3845  141.0062  165.1668 C.3     1  UNL1        0.1137
     13 C         142.2424  140.5054  163.7600 C.3     1  UNL1        0.1149
     14 C         142.1449  140.6257  167.7256 C.ar    1  UNL1        0.1317
     15 C         141.5543  141.9488  168.1138 C.ar    1  UNL1        0.0382
     16 C         141.6964  142.4497  169.5206 C.ar    1  UNL1        0.0757
     17 C         142.4290  141.6275  170.5390 C.ar    1  UNL1        0.0246
     18 C         143.0195  140.3045  170.1509 C.ar    1  UNL1        0.1002
     19 N         142.8775  139.8036  168.7441 N.ar    1  UNL1       -0.2292
     20 C         141.1059  143.7728  169.9088 C.3     1  UNL1        0.4187
     21 F         140.5154  145.0958  170.2971 F       1  UNL1       -0.1659
     22 F         142.3682  144.1215  170.6403 F       1  UNL1       -0.1659
     23 F         139.8437  143.4241  169.1774 F       1  UNL1       -0.1659
     24 C         143.1541  138.6028  160.8573 C.3     1  UNL1        0.0082
     25 C         143.1890  137.5010  159.8400 C.3     1  UNL1        0.0005
     26 C         144.0062  138.5469  161.3468 C.3     1  UNL1        0.0005
     27 N         139.3896  142.3355  160.2765 N.3     1  UNL1       -0.2975
     28 H         139.4722  142.8527  159.4013 H       1  UNL1        0.1232
     29 C         138.1608  143.2021  162.3952 C.3     1  UNL1        0.1590
     30 C         138.0153  144.2198  163.4875 C.3     1  UNL1        0.1729
     31 O         138.9533  145.3885  163.5534 O.3     1  UNL1       -0.3511
     32 C         140.0366  145.5396  162.5271 C.3     1  UNL1        0.1437
     33 C         140.1821  144.5219  161.4348 C.3     1  UNL1        0.0503
     34 C         139.2441  143.3532  161.3689 C.3     1  UNL1        0.0865
     35 O         137.2228  142.0334  162.3293 O.3     1  UNL1       -0.3523
     36 C         138.4137  140.8111  164.2883 C.3     1  UNL1        0.0346
     37 C         137.5505  140.7665  163.0624 C.3     1  UNL1        0.1423
@<TRIPOS>BOND
     1    36    37    1
     2    37    35    1
     3    29    35    1
     4    29    30    1
     5    30    31    1
     6    31    32    1
     7    32    33    1
     8    33    34    1
     9    34    27    1
    10     1    27    1
    11     1     2    1
    12     2     3    1
    13     3     4    1
    14     4     6    1
    15     6     7    2
    16     6     8   am
    17     8     9    1
    18     9    10    1
    19    10    11    1
    20    11    14    1
    21    14    15   ar
    22    15    16   ar
    23    16    20    1
    24    20    21    1
    25    20    22    1
    26    20    23    1
    27    16    17   ar
    28    17    18   ar
    29    18    19   ar
    30    11    12    1
    31    12    13    1
    32     4    24    1
    33    24    25    1
    34    24    26    1
    35     4     5    1
    36    34    29    1
    37     5     1    1
    38    13     8    1
    39    19    14   ar
    40    27    28    1
@<TRIPOS>MOLECULE
*****
 37 40 0 0 0
SMALL
GASTEIGER

@<TRIPOS>ATOM
      1 C         142.6795  139.9939  164.9074 C.3     1  UNL1        0.0545
      2 C         142.7113  138.4963  164.9861 C.3     1  UNL1        0.0162
      3 C         141.3296  137.9876  164.6994 C.3     1  UNL1        0.0100
      4 C         140.4438  139.1708  164.4436 C.3     1  UNL1        0.0704
      5 C         141.2781  140.4107  164.5722 C.3     1  UNL1        0.0243
      6 C         139.3353  140.1370  164.1481 C.2     1  UNL1        0.2248
      7 O         138.3083  140.4441  165.1973 O.2     1  UNL1       -0.2749
      8 N         139.2536  140.7962  162.8031 N.am    1  UNL1       -0.2760
      9 C         138.1451  141.7625  162.5074 C.3     1  UNL1        0.1149
     10 C         138.0635  142.4216  161.1625 C.3     1  UNL1        0.1137
     11 N         139.0905  142.1145  160.1132 N.pl3   1  UNL1       -0.2897
     12 C         140.1990  141.1482  160.4089 C.3     1  UNL1        0.1137
     13 C         140.2806  140.4891  161.7538 C.3     1  UNL1        0.1149
     14 C         139.0089  142.7736  158.7683 C.ar    1  UNL1        0.1317
     15 C         137.8995  142.4162  157.8240 C.ar    1  UNL1        0.0382
     16 C         137.8179  143.0754  156.4790 C.ar    1  UNL1        0.0757
     17 C         138.8456  144.0918  156.0784 C.ar    1  UNL1        0.0246
     18 C         139.9550  144.4492  157.0226 C.ar    1  UNL1        0.1002
     19 N         140.0365  143.7901  158.3676 N.ar    1  UNL1       -0.2292
     20 C         136.7086  142.7181  155.5347 C.3     1  UNL1        0.4187
     21 F         135.5993  142.3607  154.5904 F       1  UNL1       -0.1659
     22 F         136.8539  141.2733  155.9108 F       1  UNL1       -0.1659
     23 F         136.5633  144.1629  155.1587 F       1  UNL1       -0.1659
     24 C         139.3779  138.1328  164.2533 C.3     1  UNL1        0.0082
     25 C         138.7494  137.4756  165.4462 C.3     1  UNL1        0.0005
     26 C         138.9440  137.7350  163.4646 C.3     1  UNL1        0.0005
     27 N         143.8445  140.9132  165.1257 N.3     1  UNL1       -0.2975
     28 H         143.7976  141.2226  166.0965 H       1  UNL1        0.1232
     29 C         144.5299  142.0411  162.8878 C.3     1  UNL1        0.1590
     30 C         144.6798  143.2743  162.0471 C.3     1  UNL1        0.1729
     31 O         144.2944  144.6128  162.6037 O.3     1  UNL1       -0.3511
     32 C         143.7591  144.7182  164.0009 C.3     1  UNL1        0.1437
     33 C         143.6091  143.4850  164.8415 C.3     1  UNL1        0.0503
     34 C         143.9945  142.1465  164.2850 C.3     1  UNL1        0.0865
     35 O         144.9153  140.7026  162.3312 O.3     1  UNL1       -0.3523
     36 C         143.7909  138.5271  161.4635 C.3     1  UNL1        0.0346
     37 C         144.0114  140.0069  161.3570 C.3     1  UNL1        0.1423
@<TRIPOS>BOND
     1    36    37    1
     2    37    35    1
     3    29    35    1
     4    29    30    1
     5    30    31    1
     6    31    32    1
     7    32    33    1
     8    33    34    1
     9    34    27    1
    10     1    27    1
    11     1     2    1
    12     2     3    1
    13     3     4    1
    14     4     6    1
    15     6     7    2
    16     6     8   am
    17     8     9    1
    18     9    10    1
    19    10    11    1
    20    11    14    1
    21    14    15   ar
    22    15    16   ar
    23    16    20    1
    24    20    21    1
    25    20    22    1
    26    20    23    1
    27    16    17   ar
    28    17    18   ar
    29    18    19   ar
    30    11    12    1
    31    12    13    1
    32     4    24    1
    33    24    25    1
    34    24    26    1
    35     4     5    1
    36    34    29    1
    37     5     1    1
    38    13     8    1
    39    19    14   ar
    40    27    28    1
@<TRIPOS>MOLECULE
*****
 37 40 0 0 0
SMALL
GASTEIGER

@<TRIPOS>ATOM
      1 C         142.7832  139.9946  164.9702 C.3     1  UNL1        0.0545
      2 C         142.8022  138.5017  165.1147 C.3     1  UNL1        0.0162
      3 C         141.4024  137.9992  164.9194 C.3     1  UNL1        0.0100
      4 C         140.5183  139.1815  164.6542 C.3     1  UNL1        0.0704
      5 C         141.3716  140.4147  164.6856 C.3     1  UNL1        0.0243
      6 C         139.4072  140.1484  164.3700 C.2     1  UNL1        0.2248
      7 O         138.4245  140.4994  165.4475 O.2     1  UNL1       -0.2749
      8 N         139.2789  140.7642  163.0083 N.am    1  UNL1       -0.2760
      9 C         138.1678  141.7310  162.7240 C.3     1  UNL1        0.1149
     10 C         138.0395  142.3468  161.3622 C.3     1  UNL1        0.1137
     11 N         139.0222  141.9957  160.2847 N.pl3   1  UNL1       -0.2897
     12 C         140.1333  141.0289  160.5690 C.3     1  UNL1        0.1137
     13 C         140.2616  140.4131  161.9308 C.3     1  UNL1        0.1149
     14 C         138.8939  142.6115  158.9230 C.ar    1  UNL1        0.1317
     15 C         139.8275  143.7087  158.5051 C.ar    1  UNL1        0.0382
     16 C         139.6992  144.3245  157.1433 C.ar    1  UNL1        0.0757
     17 C         138.6374  143.8431  156.1995 C.ar    1  UNL1        0.0246
     18 C         137.7039  142.7459  156.6174 C.ar    1  UNL1        0.1002
     19 N         137.8322  142.1301  157.9792 N.ar    1  UNL1       -0.2292
     20 C         140.6327  145.4217  156.7254 C.3     1  UNL1        0.4187
     21 F         141.5662  146.5188  156.3074 F       1  UNL1       -0.1659
     22 F         141.2853  144.4929  155.7448 F       1  UNL1       -0.1659
     23 F         139.9802  146.3504  157.7059 F       1  UNL1       -0.1659
     24 C         139.4327  138.1505  164.5634 C.3     1  UNL1        0.0082
     25 C         139.0290  137.6020  163.2269 C.3     1  UNL1        0.0005
     26 C         138.8620  137.6984  165.2256 C.3     1  UNL1        0.0005
     27 N         143.9677  140.9071  165.0894 N.3     1  UNL1       -0.2975
     28 H         143.9928  141.2323  166.0558 H       1  UNL1        0.1232
     29 C         144.5731  142.0039  162.8132 C.3     1  UNL1        0.1590
     30 C         144.6718  143.2221  161.9438 C.3     1  UNL1        0.1729
     31 O         144.2638  144.5619  162.4808 O.3     1  UNL1       -0.3511
     32 C         143.7571  144.6835  163.8874 C.3     1  UNL1        0.1437
     33 C         143.6585  143.4652  164.7569 C.3     1  UNL1        0.0503
     34 C         144.0664  142.1254  164.2198 C.3     1  UNL1        0.0865
     35 O         144.9811  140.6640  162.2762 O.3     1  UNL1       -0.3523
     36 C         143.8873  138.4083  161.5944 C.3     1  UNL1        0.0346
     37 C         144.0404  139.8881  161.4027 C.3     1  UNL1        0.1423
@<TRIPOS>BOND
     1    36    37    1
     2    37    35    1
     3    29    35    1
     4    29    30    1
     5    30    31    1
     6    31    32    1
     7    32    33    1
     8    33    34    1
     9    34    27    1
    10     1    27    1
    11     1     2    1
    12     2     3    1
    13     3     4    1
    14     4     6    1
    15     6     7    2
    16     6     8   am
    17     8     9    1
    18     9    10    1
    19    10    11    1
    20    11    14    1
    21    14    15   ar
    22    15    16   ar
    23    16    20    1
    24    20    21    1
    25    20    22    1
    26    20    23    1
    27    16    17   ar
    28    17    18   ar
    29    18    19   ar
    30    11    12    1
    31    12    13    1
    32     4    24    1
    33    24    25    1
    34    24    26    1
    35     4     5    1
    36    34    29    1
    37     5     1    1
    38    13     8    1
    39    19    14   ar
    40    27    28    1
@<TRIPOS>MOLECULE
*****
 37 40 0 0 0
SMALL
GASTEIGER

@<TRIPOS>ATOM
      1 C         139.8536  142.5083  164.2038 C.3     1  UNL1        0.0545
      2 C         140.2978  143.4544  165.2796 C.3     1  UNL1        0.0162
      3 C         141.6681  143.9503  164.9241 C.3     1  UNL1        0.0100
      4 C         142.0709  143.3106  163.6285 C.3     1  UNL1        0.0704
      5 C         140.9494  142.4194  163.1833 C.3     1  UNL1        0.0243
      6 C         142.7371  142.8364  162.3710 C.2     1  UNL1        0.2248
      7 O         143.7949  141.7750  162.4370 O.2     1  UNL1       -0.2749
      8 N         142.3455  143.4237  161.0475 N.am    1  UNL1       -0.2760
      9 C         143.0117  142.9496  159.7899 C.3     1  UNL1        0.1149
     10 C         142.6200  143.5370  158.4664 C.3     1  UNL1        0.1137
     11 N         141.5622  144.5984  158.4005 N.pl3   1  UNL1       -0.2897
     12 C         140.8960  145.0725  159.6580 C.3     1  UNL1        0.1137
     13 C         141.2877  144.4852  160.9815 C.3     1  UNL1        0.1149
     14 C         141.1706  145.1858  157.0770 C.ar    1  UNL1        0.1317
     15 C         140.2829  146.3939  157.0258 C.ar    1  UNL1        0.0382
     16 C         139.8913  146.9813  155.7023 C.ar    1  UNL1        0.0757
     17 C         140.3872  146.3605  154.4301 C.ar    1  UNL1        0.0246
     18 C         141.2748  145.1524  154.4812 C.ar    1  UNL1        0.1002
     19 N         141.6664  144.5651  155.8047 N.ar    1  UNL1       -0.2292
     20 C         139.0037  148.1894  155.6511 C.3     1  UNL1        0.4187
     21 F         138.1162  149.3975  155.5999 F       1  UNL1       -0.1659
     22 F         139.2603  148.3154  154.1786 F       1  UNL1       -0.1659
     23 F         138.7472  148.0634  157.1236 F       1  UNL1       -0.1659
     24 C         143.3315  144.1026  163.8108 C.3     1  UNL1        0.0082
     25 C         144.2787  143.7597  164.9223 C.3     1  UNL1        0.0005
     26 C         143.7335  144.8664  163.3379 C.3     1  UNL1        0.0005
     27 N         138.5437  141.7791  164.1566 N.3     1  UNL1       -0.2975
     28 H         138.1989  141.7308  165.1153 H       1  UNL1        0.1232
     29 C         137.9191  140.1492  162.2321 C.3     1  UNL1        0.1590
     30 C         137.8555  138.7566  161.6785 C.3     1  UNL1        0.1729
     31 O         138.3528  137.6012  162.4956 O.3     1  UNL1       -0.3511
     32 C         138.9138  137.8384  163.8663 C.3     1  UNL1        0.1437
     33 C         138.9774  139.2310  164.4200 C.3     1  UNL1        0.0503
     34 C         138.4800  140.3864  163.6029 C.3     1  UNL1        0.0865
     35 O         137.4217  141.3047  161.4150 O.3     1  UNL1       -0.3523
     36 C         139.4634  141.4372  159.8138 C.3     1  UNL1        0.0346
     37 C         138.3850  142.1186  160.6029 C.3     1  UNL1        0.1423
@<TRIPOS>BOND
     1    36    37    1
     2    37    35    1
     3    29    35    1
     4    29    30    1
     5    30    31    1
     6    31    32    1
     7    32    33    1
     8    33    34    1
     9    34    27    1
    10     1    27    1
    11     1     2    1
    12     2     3    1
    13     3     4    1
    14     4     6    1
    15     6     7    2
    16     6     8   am
    17     8     9    1
    18     9    10    1
    19    10    11    1
    20    11    14    1
    21    14    15   ar
    22    15    16   ar
    23    16    20    1
    24    20    21    1
    25    20    22    1
    26    20    23    1
    27    16    17   ar
    28    17    18   ar
    29    18    19   ar
    30    11    12    1
    31    12    13    1
    32     4    24    1
    33    24    25    1
    34    24    26    1
    35     4     5    1
    36    34    29    1
    37     5     1    1
    38    13     8    1
    39    19    14   ar
    40    27    28    1
@<TRIPOS>MOLECULE
*****
 37 40 0 0 0
SMALL
GASTEIGER

@<TRIPOS>ATOM
      1 C         141.3895  141.7232  160.1405 C.3     1  UNL1        0.0545
      2 C         142.5863  141.4112  159.2918 C.3     1  UNL1        0.0162
      3 C         143.1132  140.0700  159.7085 C.3     1  UNL1        0.0100
      4 C         142.2420  139.5530  160.8147 C.3     1  UNL1        0.0704
      5 C         141.1767  140.5747  161.0817 C.3     1  UNL1        0.0243
      6 C         141.5638  138.7891  161.9131 C.2     1  UNL1        0.2248
      7 O         140.7487  137.5726  161.5881 O.2     1  UNL1       -0.2749
      8 N         141.7007  139.2418  163.3366 N.am    1  UNL1       -0.2760
      9 C         141.0226  138.4780  164.4351 C.3     1  UNL1        0.1149
     10 C         141.1595  138.9307  165.8586 C.3     1  UNL1        0.1137
     11 N         141.9747  140.1472  166.1836 N.pl3   1  UNL1       -0.2897
     12 C         142.6528  140.9110  165.0852 C.3     1  UNL1        0.1137
     13 C         142.5158  140.4583  163.6617 C.3     1  UNL1        0.1149
     14 C         142.1116  140.5999  167.6071 C.ar    1  UNL1        0.1317
     15 C         141.5632  141.9316  168.0266 C.ar    1  UNL1        0.0382
     16 C         141.7002  142.3843  169.4501 C.ar    1  UNL1        0.0757
     17 C         142.3855  141.5053  170.4540 C.ar    1  UNL1        0.0246
     18 C         142.9339  140.1737  170.0345 C.ar    1  UNL1        0.1002
     19 N         142.7969  139.7210  168.6110 N.ar    1  UNL1       -0.2292
     20 C         141.1518  143.7159  169.8697 C.3     1  UNL1        0.4187
     21 F         140.6035  145.0475  170.2893 F       1  UNL1       -0.1659
     22 F         139.8945  143.4408  169.0994 F       1  UNL1       -0.1659
     23 F         142.4091  143.9909  170.6401 F       1  UNL1       -0.1659
     24 C         143.1654  138.3717  160.7773 C.3     1  UNL1        0.0082
     25 C         143.0516  137.3654  159.6708 C.3     1  UNL1        0.0005
     26 C         143.9001  138.0596  161.3532 C.3     1  UNL1        0.0005
     27 N         140.5525  142.9654  160.0618 N.3     1  UNL1       -0.2975
     28 H         141.1566  143.7053  159.7041 H       1  UNL1        0.1232
     29 C         140.6645  144.3789  162.2389 C.3     1  UNL1        0.1590
     30 C         140.0042  144.9177  163.4732 C.3     1  UNL1        0.1729
     31 O         138.5716  144.5820  163.7649 O.3     1  UNL1       -0.3511
     32 C         137.7993  143.7075  162.8222 C.3     1  UNL1        0.1437
     33 C         138.4596  143.1686  161.5879 C.3     1  UNL1        0.0503
     34 C         139.8922  143.5043  161.2962 C.3     1  UNL1        0.0865
     35 O         142.0971  144.7145  161.9473 O.3     1  UNL1       -0.3523
     36 C         144.3401  143.4043  161.9907 C.3     1  UNL1        0.0346
     37 C         143.1961  144.0457  162.7185 C.3     1  UNL1        0.1423
@<TRIPOS>BOND
     1    36    37    1
     2    37    35    1
     3    29    35    1
     4    29    30    1
     5    30    31    1
     6    31    32    1
     7    32    33    1
     8    33    34    1
     9    34    27    1
    10     1    27    1
    11     1     2    1
    12     2     3    1
    13     3     4    1
    14     4     6    1
    15     6     7    2
    16     6     8   am
    17     8     9    1
    18     9    10    1
    19    10    11    1
    20    11    14    1
    21    14    15   ar
    22    15    16   ar
    23    16    20    1
    24    20    21    1
    25    20    22    1
    26    20    23    1
    27    16    17   ar
    28    17    18   ar
    29    18    19   ar
    30    11    12    1
    31    12    13    1
    32     4    24    1
    33    24    25    1
    34    24    26    1
    35     4     5    1
    36    34    29    1
    37     5     1    1
    38    13     8    1
    39    19    14   ar
    40    27    28    1
@<TRIPOS>MOLECULE
*****
 37 40 0 0 0
SMALL
GASTEIGER

@<TRIPOS>ATOM
      1 C         138.4149  142.4441  164.2743 C.3     1  UNL1        0.0545
      2 C         137.8897  143.8265  164.0232 C.3     1  UNL1        0.0162
      3 C         139.0512  144.7057  163.6653 C.3     1  UNL1        0.0100
      4 C         140.2942  143.8667  163.6953 C.3     1  UNL1        0.0704
      5 C         139.9009  142.4689  164.0716 C.3     1  UNL1        0.0243
      6 C         141.6799  143.2947  163.6443 C.2     1  UNL1        0.2248
      7 O         142.5141  143.2379  164.8896 O.2     1  UNL1       -0.2749
      8 N         142.2315  142.7796  162.3479 N.am    1  UNL1       -0.2760
      9 C         143.6172  142.2077  162.2969 C.3     1  UNL1        0.1149
     10 C         144.1687  141.6926  161.0005 C.3     1  UNL1        0.1137
     11 N         143.3345  141.7495  159.7552 N.pl3   1  UNL1       -0.2897
     12 C         141.9487  142.3214  159.8063 C.3     1  UNL1        0.1137
     13 C         141.3973  142.8365  161.1026 C.3     1  UNL1        0.1149
     14 C         143.8860  141.2344  158.4588 C.ar    1  UNL1        0.1317
     15 C         145.1078  141.8659  157.8600 C.ar    1  UNL1        0.0382
     16 C         145.6593  141.3509  156.5636 C.ar    1  UNL1        0.0757
     17 C         144.9890  140.2044  155.8661 C.ar    1  UNL1        0.0246
     18 C         143.7673  139.5730  156.4650 C.ar    1  UNL1        0.1002
     19 N         143.2158  140.0881  157.7613 N.ar    1  UNL1       -0.2292
     20 C         146.8810  141.9822  155.9647 C.3     1  UNL1        0.4187
     21 F         148.1027  142.6136  155.3657 F       1  UNL1       -0.1659
     22 F         147.1330  142.7136  157.2498 F       1  UNL1       -0.1659
     23 F         146.6289  141.2509  154.6795 F       1  UNL1       -0.1659
     24 C         140.9771  145.1448  163.3083 C.3     1  UNL1        0.0082
     25 C         140.4012  146.0037  162.2216 C.3     1  UNL1        0.0005
     26 C         141.7883  145.6077  163.6186 C.3     1  UNL1        0.0005
     27 N         137.5975  141.2471  164.6604 N.3     1  UNL1       -0.2975
     28 H         137.4801  141.2848  165.6729 H       1  UNL1        0.1232
     29 C         138.4548  138.9202  165.4355 C.3     1  UNL1        0.1590
     30 C         138.9439  137.5407  165.1074 C.3     1  UNL1        0.1729
     31 O         139.0648  137.1085  163.6761 O.3     1  UNL1       -0.3511
     32 C         138.6967  138.0558  162.5729 C.3     1  UNL1        0.1437
     33 C         138.2076  139.4353  162.9010 C.3     1  UNL1        0.0503
     34 C         138.0866  139.8675  164.3323 C.3     1  UNL1        0.0865
     35 O         138.3338  139.3524  166.8667 O.3     1  UNL1       -0.3523
     36 C         140.1036  141.1749  167.4109 C.3     1  UNL1        0.0346
     37 C         139.5516  139.7961  167.6217 C.3     1  UNL1        0.1423
@<TRIPOS>BOND
     1    36    37    1
     2    37    35    1
     3    29    35    1
     4    29    30    1
     5    30    31    1
     6    31    32    1
     7    32    33    1
     8    33    34    1
     9    34    27    1
    10     1    27    1
    11     1     2    1
    12     2     3    1
    13     3     4    1
    14     4     6    1
    15     6     7    2
    16     6     8   am
    17     8     9    1
    18     9    10    1
    19    10    11    1
    20    11    14    1
    21    14    15   ar
    22    15    16   ar
    23    16    20    1
    24    20    21    1
    25    20    22    1
    26    20    23    1
    27    16    17   ar
    28    17    18   ar
    29    18    19   ar
    30    11    12    1
    31    12    13    1
    32     4    24    1
    33    24    25    1
    34    24    26    1
    35     4     5    1
    36    34    29    1
    37     5     1    1
    38    13     8    1
    39    19    14   ar
    40    27    28    1
@<TRIPOS>MOLECULE
*****
 37 40 0 0 0
SMALL
GASTEIGER

@<TRIPOS>ATOM
      1 C         139.9603  140.9320  160.1502 C.3     1  UNL1        0.0545
      2 C         139.1333  141.9230  159.3861 C.3     1  UNL1        0.0162
      3 C         139.7708  143.2725  159.5362 C.3     1  UNL1        0.0100
      4 C         140.9919  143.1155  160.3931 C.3     1  UNL1        0.0704
      5 C         141.1090  141.6691  160.7726 C.3     1  UNL1        0.0243
      6 C         142.2431  143.2676  161.2062 C.2     1  UNL1        0.2248
      7 O         143.5288  143.6564  160.5386 O.2     1  UNL1       -0.2749
      8 N         142.2087  143.0307  162.6870 N.am    1  UNL1       -0.2760
      9 C         143.4599  143.1827  163.5002 C.3     1  UNL1        0.1149
     10 C         143.4255  142.9458  164.9810 C.3     1  UNL1        0.1137
     11 N         142.1397  142.5569  165.6486 N.pl3   1  UNL1       -0.2897
     12 C         140.8885  142.4049  164.8354 C.3     1  UNL1        0.1137
     13 C         140.9230  142.6418  163.3546 C.3     1  UNL1        0.1149
     14 C         142.1053  142.3201  167.1293 C.ar    1  UNL1        0.1317
     15 C         140.8454  141.8328  167.7817 C.ar    1  UNL1        0.0382
     16 C         140.8109  141.5959  169.2625 C.ar    1  UNL1        0.0757
     17 C         142.0362  141.8463  170.0908 C.ar    1  UNL1        0.0246
     18 C         143.2959  142.3335  169.4385 C.ar    1  UNL1        0.1002
     19 N         143.3304  142.5704  167.9577 N.ar    1  UNL1       -0.2292
     20 C         139.5512  141.1087  169.9150 C.3     1  UNL1        0.4187
     21 F         138.2915  140.6215  170.5674 F       1  UNL1       -0.1659
     22 F         139.2612  142.5002  170.3940 F       1  UNL1       -0.1659
     23 F         139.8413  139.7172  169.4359 F       1  UNL1       -0.1659
     24 C         141.1363  144.5937  160.1835 C.3     1  UNL1        0.0082
     25 C         141.4530  145.1305  158.8191 C.3     1  UNL1        0.0005
     26 C         141.0689  145.3779  160.7745 C.3     1  UNL1        0.0005
     27 N         139.6867  139.4621  160.2709 N.3     1  UNL1       -0.2975
     28 H         138.7303  139.3133  159.9493 H       1  UNL1        0.1232
     29 C         138.7633  139.0125  162.6573 C.3     1  UNL1        0.1590
     30 C         138.8826  138.3343  163.9899 C.3     1  UNL1        0.1729
     31 O         140.0446  137.4276  164.2687 O.3     1  UNL1       -0.3511
     32 C         141.0872  137.1990  163.2148 C.3     1  UNL1        0.1437
     33 C         140.9679  137.8772  161.8823 C.3     1  UNL1        0.0503
     34 C         139.8060  138.7839  161.6035 C.3     1  UNL1        0.0865
     35 O         137.6014  139.9192  162.3786 O.3     1  UNL1       -0.3523
     36 C         137.6319  142.5038  162.6412 C.3     1  UNL1        0.0346
     37 C         137.3856  141.1421  163.2200 C.3     1  UNL1        0.1423
@<TRIPOS>BOND
     1    36    37    1
     2    37    35    1
     3    29    35    1
     4    29    30    1
     5    30    31    1
     6    31    32    1
     7    32    33    1
     8    33    34    1
     9    34    27    1
    10     1    27    1
    11     1     2    1
    12     2     3    1
    13     3     4    1
    14     4     6    1
    15     6     7    2
    16     6     8   am
    17     8     9    1
    18     9    10    1
    19    10    11    1
    20    11    14    1
    21    14    15   ar
    22    15    16   ar
    23    16    20    1
    24    20    21    1
    25    20    22    1
    26    20    23    1
    27    16    17   ar
    28    17    18   ar
    29    18    19   ar
    30    11    12    1
    31    12    13    1
    32     4    24    1
    33    24    25    1
    34    24    26    1
    35     4     5    1
    36    34    29    1
    37     5     1    1
    38    13     8    1
    39    19    14   ar
    40    27    28    1
@<TRIPOS>MOLECULE
*****
 37 40 0 0 0
SMALL
GASTEIGER

@<TRIPOS>ATOM
      1 C         139.8061  140.8696  160.5965 C.3     1  UNL1        0.0545
      2 C         138.8890  141.8482  159.9249 C.3     1  UNL1        0.0162
      3 C         139.4802  143.2182  160.0785 C.3     1  UNL1        0.0100
      4 C         140.7627  143.0862  160.8451 C.3     1  UNL1        0.0704
      5 C         140.9641  141.6347  161.1653 C.3     1  UNL1        0.0243
      6 C         142.0598  143.2655  161.5768 C.2     1  UNL1        0.2248
      7 O         143.2815  143.7233  160.8365 O.2     1  UNL1       -0.2749
      8 N         142.1353  142.9870  163.0488 N.am    1  UNL1       -0.2760
      9 C         143.4324  143.1662  163.7805 C.3     1  UNL1        0.1149
     10 C         143.5078  142.8876  165.2525 C.3     1  UNL1        0.1137
     11 N         142.2861  142.4298  165.9927 N.pl3   1  UNL1       -0.2897
     12 C         140.9891  142.2506  165.2610 C.3     1  UNL1        0.1137
     13 C         140.9137  142.5292  163.7890 C.3     1  UNL1        0.1149
     14 C         142.3616  142.1513  167.4647 C.ar    1  UNL1        0.1317
     15 C         141.2493  141.4100  168.1456 C.ar    1  UNL1        0.0382
     16 C         141.3247  141.1314  169.6176 C.ar    1  UNL1        0.0757
     17 C         142.5122  141.5941  170.4086 C.ar    1  UNL1        0.0246
     18 C         143.6244  142.3353  169.7277 C.ar    1  UNL1        0.1002
     19 N         143.5490  142.6139  168.2558 N.ar    1  UNL1       -0.2292
     20 C         140.2126  140.3902  170.2986 C.3     1  UNL1        0.4187
     21 F         139.1005  139.6490  170.9796 F       1  UNL1       -0.1659
     22 F         141.0801  139.1697  170.3869 F       1  UNL1       -0.1659
     23 F         139.3451  141.6107  170.2103 F       1  UNL1       -0.1659
     24 C         140.8325  144.5752  160.6779 C.3     1  UNL1        0.0082
     25 C         140.3891  145.4767  161.7917 C.3     1  UNL1        0.0005
     26 C         141.1250  145.1684  159.9490 C.3     1  UNL1        0.0005
     27 N         139.6011  139.3862  160.6841 N.3     1  UNL1       -0.2975
     28 H         138.6462  139.2022  160.3762 H       1  UNL1        0.1232
     29 C         141.0725  137.9953  162.3121 C.3     1  UNL1        0.1590
     30 C         141.2476  137.2902  163.6244 C.3     1  UNL1        0.1729
     31 O         140.1267  137.2708  164.6209 O.3     1  UNL1       -0.3511
     32 C         138.8305  137.9565  164.3052 C.3     1  UNL1        0.1437
     33 C         138.6554  138.6617  162.9930 C.3     1  UNL1        0.0503
     34 C         139.7763  138.6810  161.9964 C.3     1  UNL1        0.0865
     35 O         142.1934  138.0147  161.3156 O.3     1  UNL1       -0.3523
     36 C         144.1453  139.6893  161.6843 C.3     1  UNL1        0.0346
     37 C         143.5952  138.2963  161.7690 C.3     1  UNL1        0.1423
@<TRIPOS>BOND
     1    36    37    1
     2    37    35    1
     3    29    35    1
     4    29    30    1
     5    30    31    1
     6    31    32    1
     7    32    33    1
     8    33    34    1
     9    34    27    1
    10     1    27    1
    11     1     2    1
    12     2     3    1
    13     3     4    1
    14     4     6    1
    15     6     7    2
    16     6     8   am
    17     8     9    1
    18     9    10    1
    19    10    11    1
    20    11    14    1
    21    14    15   ar
    22    15    16   ar
    23    16    20    1
    24    20    21    1
    25    20    22    1
    26    20    23    1
    27    16    17   ar
    28    17    18   ar
    29    18    19   ar
    30    11    12    1
    31    12    13    1
    32     4    24    1
    33    24    25    1
    34    24    26    1
    35     4     5    1
    36    34    29    1
    37     5     1    1
    38    13     8    1
    39    19    14   ar
    40    27    28    1
