@<TRIPOS>MOLECULE
*****
 40 43 0 0 0
SMALL
GASTEIGER

@<TRIPOS>ATOM
      1 C         140.0501  139.4389  164.8007 C.3     1  UNL1        0.0622
      2 C         139.8264  140.1882  166.0806 C.3     1  UNL1        0.0219
      3 C         138.8421  139.6736  167.0887 C.3     1  UNL1        0.0680
      4 C         138.0815  138.4097  166.8168 C.3     1  UNL1        0.2640
      5 F         137.1282  137.2683  167.0132 F       1  UNL1       -0.2043
      6 F         137.5267  138.7626  168.1650 F       1  UNL1       -0.2043
      7 C         138.3051  137.6603  165.5369 C.3     1  UNL1        0.0680
      8 C         139.2895  138.1749  164.5287 C.3     1  UNL1        0.0219
      9 N         140.6049  139.0859  163.4524 N.3     1  UNL1       -0.2712
     10 C         139.7295  139.1656  162.2370 C.3     1  UNL1        0.0915
     11 C         140.2843  138.8126  160.8887 C.3     1  UNL1        0.1132
     12 N         141.7144  138.3800  160.7560 N.3     1  UNL1       -0.1512
     13 C         142.5898  138.3003  161.9715 C.3     1  UNL1        0.1132
     14 C         142.0350  138.6533  163.3197 C.3     1  UNL1        0.0915
     15 S         142.2692  138.0270  159.4078 S.O2    1  UNL1        0.0833
     16 O         143.3933  137.2827  160.0653 O.2     1  UNL1       -0.1512
     17 O         141.1451  138.7714  158.7503 O.2     1  UNL1       -0.1512
     18 C         142.8240  137.6741  158.0596 C.ar    1  UNL1        0.2440
     19 C         142.6365  136.3697  157.3430 C.ar    1  UNL1        0.1380
     20 N         143.3603  136.4530  156.0319 N.ar    1  UNL1       -0.2267
     21 C         143.4360  135.3704  154.9963 C.3     1  UNL1        0.1556
     22 N         143.9951  137.8088  155.9381 N.ar    1  UNL1       -0.0624
     23 N         143.6637  138.5635  157.1913 N.ar    1  UNL1       -0.1084
     24 C         141.9024  141.0080  165.7263 C.3     1  UNL1        0.0226
     25 C         141.0033  140.5802  164.6043 C.3     1  UNL1        0.0852
     26 N         141.0576  141.2938  163.2861 N.am    1  UNL1       -0.3012
     27 C         140.2601  142.5471  163.0784 C.2     1  UNL1        0.2467
     28 O         139.4083  143.0868  164.1889 O.2     1  UNL1       -0.2701
     29 H         141.6166  140.9396  162.5572 H       1  UNL1        0.1497
     30 C         140.3143  143.2608  161.7601 C.ar    1  UNL1        0.0639
     31 C         139.6262  142.6766  160.5621 C.ar    1  UNL1        0.0053
     32 C         139.6804  143.3902  159.2439 C.ar    1  UNL1        0.0041
     33 C         140.4228  144.6881  159.1237 C.ar    1  UNL1        0.0723
     34 C         141.1109  145.2723  160.3216 C.ar    1  UNL1        0.0154
     35 C         141.0567  144.5586  161.6398 C.ar    1  UNL1        0.0620
     36 CL        141.7448  145.1428  162.8379 Cl      1  UNL1       -0.0821
     37 C         140.4770  145.4018  157.8054 C.3     1  UNL1        0.4186
     38 F         140.5312  146.1154  156.4872 F       1  UNL1       -0.1659
     39 F         139.2824  144.6256  157.3360 F       1  UNL1       -0.1659
     40 F         141.6716  146.1780  158.2748 F       1  UNL1       -0.1659
@<TRIPOS>BOND
     1    24    25    1
     2    25    26    1
     3    26    27   am
     4    27    28    2
     5    27    30    1
     6    30    31   ar
     7    31    32   ar
     8    32    33   ar
     9    33    37    1
    10    37    38    1
    11    37    39    1
    12    37    40    1
    13    33    34   ar
    14    34    35   ar
    15    35    36    1
    16    25     1    1
    17     1     9    1
    18     9    10    1
    19    10    11    1
    20    11    12    1
    21    12    15    1
    22    15    16    2
    23    15    17    2
    24    15    18    1
    25    18    19   ar
    26    19    20   ar
    27    20    21    1
    28    20    22   ar
    29    22    23   ar
    30    12    13    1
    31    13    14    1
    32     1     2    1
    33     2     3    1
    34     3     4    1
    35     4     5    1
    36     4     6    1
    37     4     7    1
    38     7     8    1
    39    35    30   ar
    40     8     1    1
    41    14     9    1
    42    23    18   ar
    43    26    29    1
@<TRIPOS>MOLECULE
*****
 40 43 0 0 0
SMALL
GASTEIGER

@<TRIPOS>ATOM
      1 C         139.8599  141.1261  166.5390 C.3     1  UNL1        0.0622
      2 C         139.4251  140.0708  167.5124 C.3     1  UNL1        0.0219
      3 C         139.6693  140.2584  168.9804 C.3     1  UNL1        0.0680
      4 C         140.3483  141.5010  169.4751 C.3     1  UNL1        0.2640
      5 F         140.9487  142.4974  170.4220 F       1  UNL1       -0.2043
      6 F         140.1220  140.7919  170.7773 F       1  UNL1       -0.2043
      7 C         140.7831  142.5562  168.5017 C.3     1  UNL1        0.0680
      8 C         140.5389  142.3688  167.0336 C.3     1  UNL1        0.0219
      9 N         140.0863  141.8353  165.2367 N.3     1  UNL1       -0.2712
     10 C         138.9268  142.4357  164.4984 C.3     1  UNL1        0.0915
     11 C         139.1531  143.1449  163.1961 C.3     1  UNL1        0.1132
     12 N         140.5388  143.2536  162.6322 N.3     1  UNL1       -0.1512
     13 C         141.6982  142.6531  163.3705 C.3     1  UNL1        0.1132
     14 C         141.4719  141.9439  164.6728 C.3     1  UNL1        0.0915
     15 S         140.7651  143.9628  161.3299 S.O2    1  UNL1        0.0833
     16 O         142.2014  144.1852  161.7007 O.2     1  UNL1       -0.1512
     17 O         139.3287  143.7403  160.9592 O.2     1  UNL1       -0.1512
     18 C         140.9914  144.6719  160.0277 C.ar    1  UNL1        0.2440
     19 C         139.9411  145.3504  159.1991 C.ar    1  UNL1        0.1380
     20 N         140.6082  145.9249  157.9847 N.ar    1  UNL1       -0.2267
     21 C         139.9315  146.6887  156.8853 C.3     1  UNL1        0.1556
     22 N         142.0709  145.6016  158.0627 N.ar    1  UNL1       -0.0624
     23 N         142.3077  144.8272  159.3253 N.ar    1  UNL1       -0.1084
     24 C         138.0728  139.3149  166.0138 C.3     1  UNL1        0.0226
     25 C         139.2595  140.1297  165.5920 C.3     1  UNL1        0.0852
     26 N         139.8459  139.9480  164.2234 N.am    1  UNL1       -0.3012
     27 C         140.4208  138.6215  163.8239 C.2     1  UNL1        0.2467
     28 O         140.4094  137.4766  164.7929 O.2     1  UNL1       -0.2701
     29 H         139.8534  140.6995  163.5874 H       1  UNL1        0.1497
     30 C         141.0071  138.4398  162.4552 C.ar    1  UNL1        0.0639
     31 C         142.4734  138.1657  162.2978 C.ar    1  UNL1        0.0053
     32 C         143.0597  137.9841  160.9291 C.ar    1  UNL1        0.0041
     33 C         142.1797  138.0764  159.7179 C.ar    1  UNL1        0.0723
     34 C         140.7134  138.3504  159.8753 C.ar    1  UNL1        0.0154
     35 C         140.1271  138.5321  161.2439 C.ar    1  UNL1        0.0620
     36 CL        138.6608  138.8062  161.4014 Cl      1  UNL1       -0.0821
     37 C         142.7661  137.8947  158.3492 C.3     1  UNL1        0.4186
     38 F         143.3524  137.7130  156.9806 F       1  UNL1       -0.1659
     39 F         142.9712  136.4357  158.6307 F       1  UNL1       -0.1659
     40 F         142.5609  139.3536  158.0677 F       1  UNL1       -0.1659
@<TRIPOS>BOND
     1    24    25    1
     2    25    26    1
     3    26    27   am
     4    27    28    2
     5    27    30    1
     6    30    31   ar
     7    31    32   ar
     8    32    33   ar
     9    33    37    1
    10    37    38    1
    11    37    39    1
    12    37    40    1
    13    33    34   ar
    14    34    35   ar
    15    35    36    1
    16    25     1    1
    17     1     9    1
    18     9    10    1
    19    10    11    1
    20    11    12    1
    21    12    15    1
    22    15    16    2
    23    15    17    2
    24    15    18    1
    25    18    19   ar
    26    19    20   ar
    27    20    21    1
    28    20    22   ar
    29    22    23   ar
    30    12    13    1
    31    13    14    1
    32     1     2    1
    33     2     3    1
    34     3     4    1
    35     4     5    1
    36     4     6    1
    37     4     7    1
    38     7     8    1
    39    35    30   ar
    40     8     1    1
    41    14     9    1
    42    23    18   ar
    43    26    29    1
@<TRIPOS>MOLECULE
*****
 40 43 0 0 0
SMALL
GASTEIGER

@<TRIPOS>ATOM
      1 C         143.0318  141.3505  165.5525 C.3     1  UNL1        0.0622
      2 C         143.1200  142.3639  166.6549 C.3     1  UNL1        0.0219
      3 C         142.9126  141.9423  168.0794 C.3     1  UNL1        0.0680
      4 C         142.6171  140.5075  168.4015 C.3     1  UNL1        0.2640
      5 F         142.3158  139.2761  169.2033 F       1  UNL1       -0.2043
      6 F         142.6006  141.0932  169.7824 F       1  UNL1       -0.2043
      7 C         142.5289  139.4941  167.2992 C.3     1  UNL1        0.0680
      8 C         142.7363  139.9156  165.8746 C.3     1  UNL1        0.0219
      9 N         143.0483  140.7648  164.1716 N.3     1  UNL1       -0.2712
     10 C         141.7579  140.4386  163.4799 C.3     1  UNL1        0.0915
     11 C         141.7744  139.8529  162.0990 C.3     1  UNL1        0.1132
     12 N         143.0812  139.5934  161.4100 N.3     1  UNL1       -0.1512
     13 C         144.3716  139.9196  162.1017 C.3     1  UNL1        0.1132
     14 C         144.3551  140.5053  163.4825 C.3     1  UNL1        0.0915
     15 S         143.0976  139.0077  160.0291 S.O2    1  UNL1        0.0833
     16 O         144.4084  139.6846  159.7577 O.2     1  UNL1       -0.1512
     17 O         141.7869  138.3308  160.3006 O.2     1  UNL1       -0.1512
     18 C         143.1141  138.4220  158.6483 C.ar    1  UNL1        0.2440
     19 C         142.5235  137.1043  158.2425 C.ar    1  UNL1        0.1380
     20 N         142.7685  136.9190  156.7743 N.ar    1  UNL1       -0.2267
     21 C         142.3456  135.7379  155.9520 C.3     1  UNL1        0.1556
     22 N         143.5105  138.1223  156.2727 N.ar    1  UNL1       -0.0624
     23 N         143.7241  139.0512  157.4309 N.ar    1  UNL1       -0.1084
     24 C         144.4478  143.4947  165.1685 C.3     1  UNL1        0.0226
     25 C         143.3331  142.5820  164.7508 C.3     1  UNL1        0.0852
     26 N         142.5197  142.9007  163.5315 N.am    1  UNL1       -0.3012
     27 C         143.1027  143.7515  162.4424 C.2     1  UNL1        0.2467
     28 O         144.4992  144.2835  162.5726 O.2     1  UNL1       -0.2701
     29 H         141.6032  142.5515  163.4460 H       1  UNL1        0.1497
     30 C         142.2893  144.0702  161.2230 C.ar    1  UNL1        0.0639
     31 C         142.6210  143.4246  159.9104 C.ar    1  UNL1        0.0053
     32 C         141.8076  143.7434  158.6911 C.ar    1  UNL1        0.0041
     33 C         140.6626  144.7078  158.7844 C.ar    1  UNL1        0.0723
     34 C         140.3309  145.3535  160.0970 C.ar    1  UNL1        0.0154
     35 C         141.1443  145.0347  161.3163 C.ar    1  UNL1        0.0620
     36 CL        140.8127  145.6804  162.6291 Cl      1  UNL1       -0.0821
     37 C         139.8492  145.0266  157.5650 C.3     1  UNL1        0.4186
     38 F         139.0358  145.3453  156.3457 F       1  UNL1       -0.1659
     39 F         140.4543  146.3984  157.5199 F       1  UNL1       -0.1659
     40 F         139.2441  143.6549  157.6101 F       1  UNL1       -0.1659
@<TRIPOS>BOND
     1    24    25    1
     2    25    26    1
     3    26    27   am
     4    27    28    2
     5    27    30    1
     6    30    31   ar
     7    31    32   ar
     8    32    33   ar
     9    33    37    1
    10    37    38    1
    11    37    39    1
    12    37    40    1
    13    33    34   ar
    14    34    35   ar
    15    35    36    1
    16    25     1    1
    17     1     9    1
    18     9    10    1
    19    10    11    1
    20    11    12    1
    21    12    15    1
    22    15    16    2
    23    15    17    2
    24    15    18    1
    25    18    19   ar
    26    19    20   ar
    27    20    21    1
    28    20    22   ar
    29    22    23   ar
    30    12    13    1
    31    13    14    1
    32     1     2    1
    33     2     3    1
    34     3     4    1
    35     4     5    1
    36     4     6    1
    37     4     7    1
    38     7     8    1
    39    35    30   ar
    40     8     1    1
    41    14     9    1
    42    23    18   ar
    43    26    29    1
@<TRIPOS>MOLECULE
*****
 40 43 0 0 0
SMALL
GASTEIGER

@<TRIPOS>ATOM
      1 C         141.2196  142.9012  158.4703 C.3     1  UNL1        0.0622
      2 C         141.2622  144.1478  159.3035 C.3     1  UNL1        0.0219
      3 C         140.6367  145.4122  158.7936 C.3     1  UNL1        0.0680
      4 C         139.9687  145.4300  157.4507 C.3     1  UNL1        0.2640
      5 F         139.2259  145.9427  156.2526 F       1  UNL1       -0.2043
      6 F         139.7532  146.8547  157.8677 F       1  UNL1       -0.2043
      7 C         139.9262  144.1834  156.6176 C.3     1  UNL1        0.0680
      8 C         140.5516  142.9189  157.1274 C.3     1  UNL1        0.0219
      9 N         141.4351  141.4764  158.0533 N.3     1  UNL1       -0.2712
     10 C         140.3154  140.4847  158.1655 C.3     1  UNL1        0.0915
     11 C         140.5308  139.0599  157.7485 C.3     1  UNL1        0.1132
     12 N         141.8659  138.6271  157.2193 N.3     1  UNL1       -0.1512
     13 C         142.9856  139.6189  157.1070 C.3     1  UNL1        0.1132
     14 C         142.7702  141.0436  157.5241 C.3     1  UNL1        0.0915
     15 S         142.0814  137.2024  156.8023 S.O2    1  UNL1        0.0833
     16 O         143.5658  137.4131  156.8496 O.2     1  UNL1       -0.1512
     17 O         140.5970  136.9918  156.7549 O.2     1  UNL1       -0.1512
     18 C         142.2969  135.7778  156.3852 C.ar    1  UNL1        0.2440
     19 C         143.4772  134.9236  156.7419 C.ar    1  UNL1        0.1380
     20 N         143.2797  133.5751  156.1155 N.ar    1  UNL1       -0.2267
     21 C         144.2196  132.4103  156.2154 C.3     1  UNL1        0.1556
     22 N         141.9773  133.5958  155.3716 N.ar    1  UNL1       -0.0624
     23 N         141.3699  134.9571  155.5383 N.ar    1  UNL1       -0.1084
     24 C         143.3790  142.8175  159.9127 C.3     1  UNL1        0.0226
     25 C         141.9624  142.3886  159.6684 C.3     1  UNL1        0.0852
     26 N         141.2888  141.4471  160.6222 N.am    1  UNL1       -0.3012
     27 C         141.0068  141.8805  162.0303 C.2     1  UNL1        0.2467
     28 O         141.3985  143.2554  162.4845 O.2     1  UNL1       -0.2701
     29 H         141.0317  140.5447  160.3241 H       1  UNL1        0.1497
     30 C         140.3332  140.9390  162.9842 C.ar    1  UNL1        0.0639
     31 C         141.1337  139.8824  163.6860 C.ar    1  UNL1        0.0053
     32 C         140.4600  138.9410  164.6399 C.ar    1  UNL1        0.0041
     33 C         138.9858  139.0562  164.8919 C.ar    1  UNL1        0.0723
     34 C         138.1853  140.1129  164.1900 C.ar    1  UNL1        0.0154
     35 C         138.8590  141.0543  163.2362 C.ar    1  UNL1        0.0620
     36 CL        138.0585  142.1110  162.5343 Cl      1  UNL1       -0.0821
     37 C         138.3122  138.1147  165.8458 C.3     1  UNL1        0.4186
     38 F         137.6385  137.1733  166.7997 F       1  UNL1       -0.1659
     39 F         139.1038  136.9738  165.2789 F       1  UNL1       -0.1659
     40 F         137.5205  139.2557  166.4127 F       1  UNL1       -0.1659
@<TRIPOS>BOND
     1    24    25    1
     2    25    26    1
     3    26    27   am
     4    27    28    2
     5    27    30    1
     6    30    31   ar
     7    31    32   ar
     8    32    33   ar
     9    33    37    1
    10    37    38    1
    11    37    39    1
    12    37    40    1
    13    33    34   ar
    14    34    35   ar
    15    35    36    1
    16    25     1    1
    17     1     9    1
    18     9    10    1
    19    10    11    1
    20    11    12    1
    21    12    15    1
    22    15    16    2
    23    15    17    2
    24    15    18    1
    25    18    19   ar
    26    19    20   ar
    27    20    21    1
    28    20    22   ar
    29    22    23   ar
    30    12    13    1
    31    13    14    1
    32     1     2    1
    33     2     3    1
    34     3     4    1
    35     4     5    1
    36     4     6    1
    37     4     7    1
    38     7     8    1
    39    35    30   ar
    40     8     1    1
    41    14     9    1
    42    23    18   ar
    43    26    29    1
@<TRIPOS>MOLECULE
*****
 40 43 0 0 0
SMALL
GASTEIGER

@<TRIPOS>ATOM
      1 C         140.5781  140.2786  164.9706 C.3     1  UNL1        0.0622
      2 C         139.7487  140.9378  166.0325 C.3     1  UNL1        0.0219
      3 C         140.1106  140.7702  167.4785 C.3     1  UNL1        0.0680
      4 C         141.3018  139.9435  167.8626 C.3     1  UNL1        0.2640
      5 F         142.3288  139.2637  168.7189 F       1  UNL1       -0.2043
      6 F         140.8291  140.3666  169.2219 F       1  UNL1       -0.2043
      7 C         142.1311  139.2843  166.8008 C.3     1  UNL1        0.0680
      8 C         141.7693  139.4518  165.3547 C.3     1  UNL1        0.0219
      9 N         141.0508  139.8554  163.6113 N.3     1  UNL1       -0.2712
     10 C         142.3005  140.4504  163.0331 C.3     1  UNL1        0.0915
     11 C         142.7732  140.0272  161.6738 C.3     1  UNL1        0.1132
     12 N         141.9962  139.0093  160.8929 N.3     1  UNL1       -0.1512
     13 C         140.7465  138.4143  161.4711 C.3     1  UNL1        0.1132
     14 C         140.2738  138.8375  162.8304 C.3     1  UNL1        0.0915
     15 S         142.4689  138.5861  159.5336 S.O2    1  UNL1        0.0833
     16 O         141.0466  138.3848  159.1017 O.2     1  UNL1       -0.1512
     17 O         143.8912  138.7875  159.9655 O.2     1  UNL1       -0.1512
     18 C         142.9416  138.1630  158.1744 C.ar    1  UNL1        0.2440
     19 C         142.6935  136.8316  157.5296 C.ar    1  UNL1        0.1380
     20 N         143.3439  136.8427  156.1780 N.ar    1  UNL1       -0.2267
     21 C         143.3442  135.7137  155.1904 C.3     1  UNL1        0.1556
     22 N         143.9939  138.1810  155.9874 N.ar    1  UNL1       -0.0624
     23 N         143.7453  138.9970  157.2212 N.ar    1  UNL1       -0.1084
     24 C         138.0913  140.7792  164.4093 C.3     1  UNL1        0.0226
     25 C         139.5511  140.9584  164.1144 C.3     1  UNL1        0.0852
     26 N         139.9838  141.8173  162.9634 N.am    1  UNL1       -0.3012
     27 C         138.9590  142.4035  162.0383 C.2     1  UNL1        0.2467
     28 O         137.5013  142.1309  162.2642 O.2     1  UNL1       -0.2701
     29 H         140.9405  141.9963  162.8151 H       1  UNL1        0.1497
     30 C         139.3917  143.2625  160.8872 C.ar    1  UNL1        0.0639
     31 C         139.3751  142.7113  159.4922 C.ar    1  UNL1        0.0053
     32 C         139.8078  143.5703  158.3412 C.ar    1  UNL1        0.0041
     33 C         140.2570  144.9805  158.5851 C.ar    1  UNL1        0.0723
     34 C         140.2736  145.5317  159.9800 C.ar    1  UNL1        0.0154
     35 C         139.8409  144.6727  161.1311 C.ar    1  UNL1        0.0620
     36 CL        139.8575  145.2240  162.5261 Cl      1  UNL1       -0.0821
     37 C         140.6898  145.8395  157.4340 C.3     1  UNL1        0.4186
     38 F         141.1224  146.6984  156.2829 F       1  UNL1       -0.1659
     39 F         141.9864  146.1228  158.1328 F       1  UNL1       -0.1659
     40 F         139.3931  145.5561  156.7352 F       1  UNL1       -0.1659
@<TRIPOS>BOND
     1    24    25    1
     2    25    26    1
     3    26    27   am
     4    27    28    2
     5    27    30    1
     6    30    31   ar
     7    31    32   ar
     8    32    33   ar
     9    33    37    1
    10    37    38    1
    11    37    39    1
    12    37    40    1
    13    33    34   ar
    14    34    35   ar
    15    35    36    1
    16    25     1    1
    17     1     9    1
    18     9    10    1
    19    10    11    1
    20    11    12    1
    21    12    15    1
    22    15    16    2
    23    15    17    2
    24    15    18    1
    25    18    19   ar
    26    19    20   ar
    27    20    21    1
    28    20    22   ar
    29    22    23   ar
    30    12    13    1
    31    13    14    1
    32     1     2    1
    33     2     3    1
    34     3     4    1
    35     4     5    1
    36     4     6    1
    37     4     7    1
    38     7     8    1
    39    35    30   ar
    40     8     1    1
    41    14     9    1
    42    23    18   ar
    43    26    29    1
@<TRIPOS>MOLECULE
*****
 40 43 0 0 0
SMALL
GASTEIGER

@<TRIPOS>ATOM
      1 C         141.1514  139.8638  164.3762 C.3     1  UNL1        0.0622
      2 C         141.0634  140.5671  165.6982 C.3     1  UNL1        0.0219
      3 C         141.9094  140.1090  166.8490 C.3     1  UNL1        0.0680
      4 C         142.8433  138.9478  166.6779 C.3     1  UNL1        0.2640
      5 F         143.8706  137.9050  167.0054 F       1  UNL1       -0.2043
      6 F         143.1121  139.2889  168.1137 F       1  UNL1       -0.2043
      7 C         142.9313  138.2446  165.3559 C.3     1  UNL1        0.0680
      8 C         142.0853  138.7026  164.2050 C.3     1  UNL1        0.0219
      9 N         140.8826  139.5228  162.9403 N.3     1  UNL1       -0.2712
     10 C         141.9586  139.7070  161.9116 C.3     1  UNL1        0.0915
     11 C         141.6898  139.3659  160.4758 C.3     1  UNL1        0.1132
     12 N         140.3450  138.8407  160.0688 N.3     1  UNL1       -0.1512
     13 C         139.2690  138.6565  161.0975 C.3     1  UNL1        0.1132
     14 C         139.5378  138.9975  162.5333 C.3     1  UNL1        0.0915
     15 S         140.0762  138.4996  158.6330 S.O2    1  UNL1        0.0833
     16 O         141.4421  137.8896  158.5222 O.2     1  UNL1       -0.1512
     17 O         138.7104  139.1096  158.7438 O.2     1  UNL1       -0.1512
     18 C         139.8074  138.1586  157.1973 C.ar    1  UNL1        0.2440
     19 C         140.5447  137.1393  156.3803 C.ar    1  UNL1        0.1380
     20 N         139.9471  137.1276  155.0045 N.ar    1  UNL1       -0.2267
     21 C         140.3801  136.2568  153.8625 C.3     1  UNL1        0.1556
     22 N         138.8405  138.1397  154.9712 N.ar    1  UNL1       -0.0624
     23 N         138.7542  138.7769  156.3264 N.ar    1  UNL1       -0.1084
     24 C         139.0261  141.2102  165.0245 C.3     1  UNL1        0.0226
     25 C         140.1241  140.9066  164.0486 C.3     1  UNL1        0.0852
     26 N         140.1948  141.6458  162.7454 N.am    1  UNL1       -0.3012
     27 C         140.8864  142.9749  162.6735 C.2     1  UNL1        0.2467
     28 O         141.5073  143.5648  163.9050 O.2     1  UNL1       -0.2701
     29 H         139.7873  141.2586  161.9371 H       1  UNL1        0.1497
     30 C         140.9572  143.7141  161.3702 C.ar    1  UNL1        0.0639
     31 C         141.8522  143.2173  160.2738 C.ar    1  UNL1        0.0053
     32 C         141.9229  143.9566  158.9706 C.ar    1  UNL1        0.0041
     33 C         141.0986  145.1926  158.7637 C.ar    1  UNL1        0.0723
     34 C         140.2036  145.6893  159.8601 C.ar    1  UNL1        0.0154
     35 C         140.1329  144.9501  161.1634 C.ar    1  UNL1        0.0620
     36 CL        139.2378  145.4469  162.2598 Cl      1  UNL1       -0.0821
     37 C         141.1693  145.9318  157.4604 C.3     1  UNL1        0.4186
     38 F         141.2401  146.6710  156.1571 F       1  UNL1       -0.1659
     39 F         139.7736  145.4900  157.1340 F       1  UNL1       -0.1659
     40 F         142.5651  146.3736  157.7868 F       1  UNL1       -0.1659
@<TRIPOS>BOND
     1    24    25    1
     2    25    26    1
     3    26    27   am
     4    27    28    2
     5    27    30    1
     6    30    31   ar
     7    31    32   ar
     8    32    33   ar
     9    33    37    1
    10    37    38    1
    11    37    39    1
    12    37    40    1
    13    33    34   ar
    14    34    35   ar
    15    35    36    1
    16    25     1    1
    17     1     9    1
    18     9    10    1
    19    10    11    1
    20    11    12    1
    21    12    15    1
    22    15    16    2
    23    15    17    2
    24    15    18    1
    25    18    19   ar
    26    19    20   ar
    27    20    21    1
    28    20    22   ar
    29    22    23   ar
    30    12    13    1
    31    13    14    1
    32     1     2    1
    33     2     3    1
    34     3     4    1
    35     4     5    1
    36     4     6    1
    37     4     7    1
    38     7     8    1
    39    35    30   ar
    40     8     1    1
    41    14     9    1
    42    23    18   ar
    43    26    29    1
@<TRIPOS>MOLECULE
*****
 40 43 0 0 0
SMALL
GASTEIGER

@<TRIPOS>ATOM
      1 C         142.2015  142.4099  157.8916 C.3     1  UNL1        0.0622
      2 C         142.6375  143.7118  158.4957 C.3     1  UNL1        0.0219
      3 C         141.8693  144.9673  158.2067 C.3     1  UNL1        0.0680
      4 C         140.6651  144.9209  157.3135 C.3     1  UNL1        0.2640
      5 F         139.4680  145.3824  156.5364 F       1  UNL1       -0.2043
      6 F         140.6854  146.3831  157.6477 F       1  UNL1       -0.2043
      7 C         140.2291  143.6191  156.7093 C.3     1  UNL1        0.0680
      8 C         140.9973  142.3635  156.9984 C.3     1  UNL1        0.0219
      9 N         142.1812  140.9477  157.5573 N.3     1  UNL1       -0.2712
     10 C         141.1920  140.0394  158.2253 C.3     1  UNL1        0.0915
     11 C         141.1717  138.5771  157.8910 C.3     1  UNL1        0.1132
     12 N         142.1407  138.0234  156.8888 N.3     1  UNL1       -0.1512
     13 C         143.1300  138.9319  156.2208 C.3     1  UNL1        0.1132
     14 C         143.1502  140.3940  156.5551 C.3     1  UNL1        0.0915
     15 S         142.1205  136.5613  156.5545 S.O2    1  UNL1        0.0833
     16 O         140.6337  136.6248  156.3668 O.2     1  UNL1       -0.1512
     17 O         143.6074  136.4978  156.7422 O.2     1  UNL1       -0.1512
     18 C         142.1003  135.0992  156.2202 C.ar    1  UNL1        0.2440
     19 C         142.9243  134.0327  156.8788 C.ar    1  UNL1        0.1380
     20 N         142.5858  132.7213  156.2343 N.ar    1  UNL1       -0.2267
     21 C         143.1768  131.3879  156.5852 C.3     1  UNL1        0.1556
     22 N         141.5527  132.9771  155.1774 N.ar    1  UNL1       -0.0624
     23 N         141.2526  134.4467  155.1687 N.ar    1  UNL1       -0.1084
     24 C         144.7268  141.8068  157.9861 C.3     1  UNL1        0.0226
     25 C         143.3986  141.9485  158.6687 C.3     1  UNL1        0.0852
     26 N         143.2676  141.6287  160.1283 N.am    1  UNL1       -0.3012
     27 C         143.6853  140.2826  160.6416 C.2     1  UNL1        0.2467
     28 O         144.2341  139.2563  159.6952 O.2     1  UNL1       -0.2701
     29 H         142.9075  142.3023  160.7494 H       1  UNL1        0.1497
     30 C         143.5543  139.9628  162.1013 C.ar    1  UNL1        0.0639
     31 C         144.7049  140.2140  163.0303 C.ar    1  UNL1        0.0053
     32 C         144.5738  139.8941  164.4899 C.ar    1  UNL1        0.0041
     33 C         143.2923  139.3232  165.0205 C.ar    1  UNL1        0.0723
     34 C         142.1417  139.0720  164.0915 C.ar    1  UNL1        0.0154
     35 C         142.2728  139.3918  162.6319 C.ar    1  UNL1        0.0620
     36 CL        141.1222  139.1407  161.7028 Cl      1  UNL1       -0.0821
     37 C         143.1613  139.0033  166.4802 C.3     1  UNL1        0.4186
     38 F         143.0303  138.6836  167.9398 F       1  UNL1       -0.1659
     39 F         143.6885  137.6225  166.2250 F       1  UNL1       -0.1659
     40 F         142.6340  140.3842  166.7354 F       1  UNL1       -0.1659
@<TRIPOS>BOND
     1    24    25    1
     2    25    26    1
     3    26    27   am
     4    27    28    2
     5    27    30    1
     6    30    31   ar
     7    31    32   ar
     8    32    33   ar
     9    33    37    1
    10    37    38    1
    11    37    39    1
    12    37    40    1
    13    33    34   ar
    14    34    35   ar
    15    35    36    1
    16    25     1    1
    17     1     9    1
    18     9    10    1
    19    10    11    1
    20    11    12    1
    21    12    15    1
    22    15    16    2
    23    15    17    2
    24    15    18    1
    25    18    19   ar
    26    19    20   ar
    27    20    21    1
    28    20    22   ar
    29    22    23   ar
    30    12    13    1
    31    13    14    1
    32     1     2    1
    33     2     3    1
    34     3     4    1
    35     4     5    1
    36     4     6    1
    37     4     7    1
    38     7     8    1
    39    35    30   ar
    40     8     1    1
    41    14     9    1
    42    23    18   ar
    43    26    29    1
@<TRIPOS>MOLECULE
*****
 40 43 0 0 0
SMALL
GASTEIGER

@<TRIPOS>ATOM
      1 C         143.1263  138.7677  157.1835 C.3     1  UNL1        0.0622
      2 C         143.4448  138.3834  155.7690 C.3     1  UNL1        0.0219
      3 C         144.4771  139.1510  154.9977 C.3     1  UNL1        0.0680
      4 C         145.1909  140.3029  155.6408 C.3     1  UNL1        0.2640
      5 F         146.1284  141.4610  155.8135 F       1  UNL1       -0.2043
      6 F         145.8350  140.3208  154.2862 F       1  UNL1       -0.2043
      7 C         144.8724  140.6872  157.0553 C.3     1  UNL1        0.0680
      8 C         143.8401  139.9195  157.8267 C.3     1  UNL1        0.0219
      9 N         142.4821  138.7497  158.5381 N.3     1  UNL1       -0.2712
     10 C         141.3457  139.6809  158.8405 C.3     1  UNL1        0.0915
     11 C         140.7016  139.6630  160.1952 C.3     1  UNL1        0.1132
     12 N         141.1939  138.7139  161.2472 N.3     1  UNL1       -0.1512
     13 C         142.3303  137.7827  160.9447 C.3     1  UNL1        0.1132
     14 C         142.9744  137.8006  159.5901 C.3     1  UNL1        0.0915
     15 S         140.5498  138.6959  162.6017 S.O2    1  UNL1        0.0833
     16 O         140.6302  140.1926  162.6598 O.2     1  UNL1       -0.1512
     17 O         140.4693  137.1992  162.5436 O.2     1  UNL1       -0.1512
     18 C         139.9057  138.6779  163.9563 C.ar    1  UNL1        0.2440
     19 C         140.2230  139.6004  165.0957 C.ar    1  UNL1        0.1380
     20 N         139.3447  139.2270  166.2528 N.ar    1  UNL1       -0.2267
     21 C         139.3292  139.8904  167.5981 C.3     1  UNL1        0.1556
     22 N         138.4844  138.0737  165.8286 N.ar    1  UNL1       -0.0624
     23 N         138.8311  137.7344  164.4092 N.ar    1  UNL1       -0.1084
     24 C         140.7922  137.8426  156.5153 C.3     1  UNL1        0.0226
     25 C         142.1887  137.6096  157.0108 C.3     1  UNL1        0.0852
     26 N         142.6477  136.2185  157.3336 N.am    1  UNL1       -0.3012
     27 C         142.6214  135.1556  156.2755 C.2     1  UNL1        0.2467
     28 O         142.1361  135.4839  154.8946 O.2     1  UNL1       -0.2701
     29 H         142.9662  136.0031  158.2399 H       1  UNL1        0.1497
     30 C         143.0803  133.7645  156.5982 C.ar    1  UNL1        0.0639
     31 C         144.3212  133.5545  157.4143 C.ar    1  UNL1        0.0053
     32 C         144.7801  132.1634  157.7370 C.ar    1  UNL1        0.0041
     33 C         143.9981  130.9823  157.2436 C.ar    1  UNL1        0.0723
     34 C         142.7573  131.1922  156.4274 C.ar    1  UNL1        0.0154
     35 C         142.2984  132.5834  156.1047 C.ar    1  UNL1        0.0620
     36 CL        141.0574  132.7934  155.2886 Cl      1  UNL1       -0.0821
     37 C         144.4571  129.5911  157.5663 C.3     1  UNL1        0.4186
     38 F         144.9160  128.2000  157.8891 F       1  UNL1       -0.1659
     39 F         145.2171  129.5420  156.2741 F       1  UNL1       -0.1659
     40 F         143.6970  129.6402  158.8585 F       1  UNL1       -0.1659
@<TRIPOS>BOND
     1    24    25    1
     2    25    26    1
     3    26    27   am
     4    27    28    2
     5    27    30    1
     6    30    31   ar
     7    31    32   ar
     8    32    33   ar
     9    33    37    1
    10    37    38    1
    11    37    39    1
    12    37    40    1
    13    33    34   ar
    14    34    35   ar
    15    35    36    1
    16    25     1    1
    17     1     9    1
    18     9    10    1
    19    10    11    1
    20    11    12    1
    21    12    15    1
    22    15    16    2
    23    15    17    2
    24    15    18    1
    25    18    19   ar
    26    19    20   ar
    27    20    21    1
    28    20    22   ar
    29    22    23   ar
    30    12    13    1
    31    13    14    1
    32     1     2    1
    33     2     3    1
    34     3     4    1
    35     4     5    1
    36     4     6    1
    37     4     7    1
    38     7     8    1
    39    35    30   ar
    40     8     1    1
    41    14     9    1
    42    23    18   ar
    43    26    29    1
@<TRIPOS>MOLECULE
*****
 40 43 0 0 0
SMALL
GASTEIGER

@<TRIPOS>ATOM
      1 C         139.1950  140.4794  158.1218 C.3     1  UNL1        0.0622
      2 C         139.8168  140.5736  156.7600 C.3     1  UNL1        0.0219
      3 C         138.9647  140.8902  155.5668 C.3     1  UNL1        0.0680
      4 C         137.4909  141.1125  155.7353 C.3     1  UNL1        0.2640
      5 F         136.0605  141.4026  155.3892 F       1  UNL1       -0.2043
      6 F         137.6159  141.3075  154.2533 F       1  UNL1       -0.2043
      7 C         136.8691  141.0183  157.0971 C.3     1  UNL1        0.0680
      8 C         137.7212  140.7017  158.2904 C.3     1  UNL1        0.0219
      9 N         139.0699  140.2844  159.6039 N.3     1  UNL1       -0.2712
     10 C         139.2371  138.9169  160.1971 C.3     1  UNL1        0.0915
     11 C         139.1121  138.7219  161.6792 C.3     1  UNL1        0.1132
     12 N         138.8199  139.8944  162.5679 N.3     1  UNL1       -0.1512
     13 C         138.6527  141.2619  161.9746 C.3     1  UNL1        0.1132
     14 C         138.7777  141.4569  160.4925 C.3     1  UNL1        0.0915
     15 S         138.6949  139.6994  164.0499 S.O2    1  UNL1        0.0833
     16 O         138.3451  141.1491  164.2111 O.2     1  UNL1       -0.1512
     17 O         139.0447  138.2497  163.8887 O.2     1  UNL1       -0.1512
     18 C         138.5698  139.5045  165.5319 C.ar    1  UNL1        0.2440
     19 C         139.3513  140.2316  166.5858 C.ar    1  UNL1        0.1380
     20 N         138.9058  139.7247  167.9254 N.ar    1  UNL1       -0.2267
     21 C         139.4259  140.1785  169.2572 C.3     1  UNL1        0.1556
     22 N         137.8492  138.6844  167.6995 N.ar    1  UNL1       -0.0624
     23 N         137.6415  138.5482  166.2202 N.ar    1  UNL1       -0.1084
     24 C         141.4606  139.3408  157.5555 C.3     1  UNL1        0.0226
     25 C         140.6254  140.1893  158.4679 C.3     1  UNL1        0.0852
     26 N         141.2205  140.7477  159.7265 N.am    1  UNL1       -0.3012
     27 C         142.1390  141.9318  159.6606 C.2     1  UNL1        0.2467
     28 O         142.4623  142.5574  158.3362 O.2     1  UNL1       -0.2701
     29 H         141.0083  140.3371  160.5957 H       1  UNL1        0.1497
     30 C         142.7342  142.4902  160.9192 C.ar    1  UNL1        0.0639
     31 C         143.8582  141.7686  161.6017 C.ar    1  UNL1        0.0053
     32 C         144.4533  142.3270  162.8602 C.ar    1  UNL1        0.0041
     33 C         143.9245  143.6071  163.4362 C.ar    1  UNL1        0.0723
     34 C         142.8005  144.3287  162.7537 C.ar    1  UNL1        0.0154
     35 C         142.2054  143.7703  161.4951 C.ar    1  UNL1        0.0620
     36 CL        141.0814  144.4919  160.8125 Cl      1  UNL1       -0.0821
     37 C         144.5197  144.1656  164.6948 C.3     1  UNL1        0.4186
     38 F         145.1149  144.7240  165.9533 F       1  UNL1       -0.1659
     39 F         145.1993  142.8540  164.9554 F       1  UNL1       -0.1659
     40 F         143.8401  145.4771  164.4342 F       1  UNL1       -0.1659
@<TRIPOS>BOND
     1    24    25    1
     2    25    26    1
     3    26    27   am
     4    27    28    2
     5    27    30    1
     6    30    31   ar
     7    31    32   ar
     8    32    33   ar
     9    33    37    1
    10    37    38    1
    11    37    39    1
    12    37    40    1
    13    33    34   ar
    14    34    35   ar
    15    35    36    1
    16    25     1    1
    17     1     9    1
    18     9    10    1
    19    10    11    1
    20    11    12    1
    21    12    15    1
    22    15    16    2
    23    15    17    2
    24    15    18    1
    25    18    19   ar
    26    19    20   ar
    27    20    21    1
    28    20    22   ar
    29    22    23   ar
    30    12    13    1
    31    13    14    1
    32     1     2    1
    33     2     3    1
    34     3     4    1
    35     4     5    1
    36     4     6    1
    37     4     7    1
    38     7     8    1
    39    35    30   ar
    40     8     1    1
    41    14     9    1
    42    23    18   ar
    43    26    29    1
