@<TRIPOS>MOLECULE
*****
 27 30 0 0 0
SMALL
GASTEIGER

@<TRIPOS>ATOM
      1 C         144.4962  142.5890  170.0496 C.3     1  UNL1        0.0597
      2 C         143.3663  141.8623  169.3822 C.2     1  UNL1        0.1396
      3 N         142.6047  142.3320  168.1783 N.2     1  UNL1       -0.2227
      4 C         141.5674  141.2983  167.8538 C.3     1  UNL1        0.2764
      5 N         141.6879  140.1897  168.8570 N.2     1  UNL1       -0.0450
      6 C         142.7997  140.5383  169.8018 C.2     1  UNL1        0.3285
      7 N         143.2634  139.7086  170.9621 N.pl3   1  UNL1       -0.2454
      8 H         142.8260  138.8488  171.1584 H       1  UNL1        0.2885
      9 H         144.0052  140.0239  171.5274 H       1  UNL1        0.2885
     10 C         140.4563  140.4596  167.2950 C.ar    1  UNL1        0.0437
     11 C         139.3324  140.0153  168.1834 C.ar    1  UNL1        0.0017
     12 C         138.2214  139.1766  167.6246 C.ar    1  UNL1       -0.0001
     13 C         138.2342  138.7824  166.1774 C.ar    1  UNL1        0.0000
     14 C         139.3581  139.2267  165.2890 C.ar    1  UNL1        0.0014
     15 C         140.4692  140.0653  165.8478 C.ar    1  UNL1        0.0017
     16 C         139.3710  138.8325  163.8418 C.ar    1  UNL1        0.0192
     17 C         138.2353  139.2297  162.9461 C.ar    1  UNL1        0.0031
     18 C         138.2481  138.8354  161.4989 C.ar    1  UNL1        0.0207
     19 C         139.3967  138.0439  160.9474 C.ar    1  UNL1        0.0989
     20 N         140.5325  137.6467  161.8431 N.ar    1  UNL1       -0.2423
     21 C         140.5196  138.0410  163.2903 C.ar    1  UNL1        0.0988
     22 C         141.2146  142.2315  166.7337 C.3     1  UNL1        0.0715
     23 C         142.1848  142.4576  165.6122 C.3     1  UNL1        0.0066
     24 C         141.8320  143.3909  164.4920 C.3     1  UNL1        0.0002
     25 C         140.5092  144.0980  164.4934 C.3     1  UNL1        0.0000
     26 C         139.5390  143.8719  165.6150 C.3     1  UNL1        0.0002
     27 C         139.8918  142.9387  166.7351 C.3     1  UNL1        0.0066
@<TRIPOS>BOND
     1     1     2    1
     2     2     3    2
     3     3     4    1
     4     4    10    1
     5    10    11   ar
     6    11    12   ar
     7    12    13   ar
     8    13    14   ar
     9    14    16    1
    10    16    17   ar
    11    17    18   ar
    12    18    19   ar
    13    19    20   ar
    14    20    21   ar
    15    14    15   ar
    16     4    22    1
    17    22    23    1
    18    23    24    1
    19    24    25    1
    20    25    26    1
    21    26    27    1
    22     4     5    1
    23     5     6    2
    24     6     7    1
    25     6     2    1
    26    15    10   ar
    27    27    22    1
    28    21    16   ar
    29     7     8    1
    30     7     9    1
@<TRIPOS>MOLECULE
*****
 27 30 0 0 0
SMALL
GASTEIGER

@<TRIPOS>ATOM
      1 C         143.4134  139.4617  170.9859 C.3     1  UNL1        0.0597
      2 C         142.4182  139.7082  169.8911 C.2     1  UNL1        0.1396
      3 N         142.7198  139.7710  168.4230 N.2     1  UNL1       -0.2227
      4 C         141.4345  140.0368  167.6967 C.3     1  UNL1        0.2764
      5 N         140.3386  140.1383  168.7158 N.2     1  UNL1       -0.0450
      6 C         140.9465  139.9352  170.0721 C.2     1  UNL1        0.3285
      7 N         140.2118  139.9556  171.3796 N.pl3   1  UNL1       -0.2454
      8 H         139.2401  140.1133  171.3958 H       1  UNL1        0.2885
      9 H         140.7012  139.8112  172.2215 H       1  UNL1        0.2885
     10 C         140.3301  140.2926  166.7144 C.ar    1  UNL1        0.0437
     11 C         139.2157  139.2999  166.5636 C.ar    1  UNL1        0.0017
     12 C         138.1114  139.5557  165.5813 C.ar    1  UNL1       -0.0001
     13 C         138.1214  140.8042  164.7499 C.ar    1  UNL1        0.0000
     14 C         139.2358  141.7968  164.9007 C.ar    1  UNL1        0.0014
     15 C         140.3401  141.5410  165.8830 C.ar    1  UNL1        0.0017
     16 C         139.2458  143.0452  164.0692 C.ar    1  UNL1        0.0192
     17 C         140.4966  143.8664  163.9642 C.ar    1  UNL1        0.0031
     18 C         140.5067  145.1148  163.1327 C.ar    1  UNL1        0.0207
     19 C         139.2658  145.5421  162.4063 C.ar    1  UNL1        0.0989
     20 N         138.0150  144.7210  162.5114 N.ar    1  UNL1       -0.2423
     21 C         138.0050  143.4726  163.3428 C.ar    1  UNL1        0.0988
     22 C         142.2996  139.9888  166.4723 C.3     1  UNL1        0.0715
     23 C         143.1155  141.1858  166.0830 C.3     1  UNL1        0.0066
     24 C         143.9806  141.1378  164.8585 C.3     1  UNL1        0.0002
     25 C         144.0297  139.8928  164.0233 C.3     1  UNL1        0.0000
     26 C         143.2138  138.6957  164.4126 C.3     1  UNL1        0.0002
     27 C         142.3488  138.7438  165.6371 C.3     1  UNL1        0.0066
@<TRIPOS>BOND
     1     1     2    1
     2     2     3    2
     3     3     4    1
     4     4    10    1
     5    10    11   ar
     6    11    12   ar
     7    12    13   ar
     8    13    14   ar
     9    14    16    1
    10    16    17   ar
    11    17    18   ar
    12    18    19   ar
    13    19    20   ar
    14    20    21   ar
    15    14    15   ar
    16     4    22    1
    17    22    23    1
    18    23    24    1
    19    24    25    1
    20    25    26    1
    21    26    27    1
    22     4     5    1
    23     5     6    2
    24     6     7    1
    25     6     2    1
    26    15    10   ar
    27    27    22    1
    28    21    16   ar
    29     7     8    1
    30     7     9    1
@<TRIPOS>MOLECULE
*****
 27 30 0 0 0
SMALL
GASTEIGER

@<TRIPOS>ATOM
      1 C         143.0821  143.3128  170.6580 C.3     1  UNL1        0.0597
      2 C         142.1477  142.6841  169.6672 C.2     1  UNL1        0.1396
      3 N         142.5442  141.8229  168.5048 N.2     1  UNL1       -0.2227
      4 C         141.2942  141.4128  167.7842 C.3     1  UNL1        0.2764
      5 N         140.1252  142.0204  168.5011 N.2     1  UNL1       -0.0450
      6 C         140.6526  142.8062  169.6650 C.2     1  UNL1        0.3285
      7 N         139.8296  143.5784  170.6530 N.pl3   1  UNL1       -0.2454
      8 H         138.8490  143.5986  170.5676 H       1  UNL1        0.2885
      9 H         140.2700  144.0649  171.3869 H       1  UNL1        0.2885
     10 C         140.2427  140.8510  166.8738 C.ar    1  UNL1        0.0437
     11 C         139.3471  139.7474  167.3534 C.ar    1  UNL1        0.0017
     12 C         138.2956  139.1857  166.4430 C.ar    1  UNL1       -0.0001
     13 C         138.1397  139.7276  165.0531 C.ar    1  UNL1        0.0000
     14 C         139.0352  140.8312  164.5735 C.ar    1  UNL1        0.0014
     15 C         140.0867  141.3929  165.4838 C.ar    1  UNL1        0.0017
     16 C         138.8792  141.3731  163.1835 C.ar    1  UNL1        0.0192
     17 C         139.6918  140.8011  162.0599 C.ar    1  UNL1        0.0031
     18 C         139.5358  141.3431  160.6700 C.ar    1  UNL1        0.0207
     19 C         138.5673  142.4569  160.4036 C.ar    1  UNL1        0.0989
     20 N         137.7546  143.0289  161.5271 N.ar    1  UNL1       -0.2423
     21 C         137.9106  142.4870  162.9171 C.ar    1  UNL1        0.0988
     22 C         142.2434  140.6877  166.8769 C.3     1  UNL1        0.0715
     23 C         142.4978  139.2226  167.0740 C.3     1  UNL1        0.0066
     24 C         143.4471  138.4974  166.1666 C.3     1  UNL1        0.0002
     25 C         144.1419  139.2374  165.0623 C.3     1  UNL1        0.0000
     26 C         143.8875  140.7026  164.8652 C.3     1  UNL1        0.0002
     27 C         142.9383  141.4276  165.7725 C.3     1  UNL1        0.0066
@<TRIPOS>BOND
     1     1     2    1
     2     2     3    2
     3     3     4    1
     4     4    10    1
     5    10    11   ar
     6    11    12   ar
     7    12    13   ar
     8    13    14   ar
     9    14    16    1
    10    16    17   ar
    11    17    18   ar
    12    18    19   ar
    13    19    20   ar
    14    20    21   ar
    15    14    15   ar
    16     4    22    1
    17    22    23    1
    18    23    24    1
    19    24    25    1
    20    25    26    1
    21    26    27    1
    22     4     5    1
    23     5     6    2
    24     6     7    1
    25     6     2    1
    26    15    10   ar
    27    27    22    1
    28    21    16   ar
    29     7     8    1
    30     7     9    1
@<TRIPOS>MOLECULE
*****
 27 30 0 0 0
SMALL
GASTEIGER

@<TRIPOS>ATOM
      1 C         140.2149  144.5495  170.2608 C.3     1  UNL1        0.0597
      2 C         140.8916  143.4167  169.5475 C.2     1  UNL1        0.1396
      3 N         140.2964  142.5840  168.4510 N.2     1  UNL1       -0.2227
      4 C         141.3194  141.5703  168.0314 C.3     1  UNL1        0.2764
      5 N         142.5468  141.7765  168.8686 N.2     1  UNL1       -0.0450
      6 C         142.2825  142.9177  169.8057 C.2     1  UNL1        0.3285
      7 N         143.2407  143.4638  170.8222 N.pl3   1  UNL1       -0.2454
      8 H         144.1366  143.0669  170.9173 H       1  UNL1        0.2885
      9 H         142.9737  144.2192  171.3943 H       1  UNL1        0.2885
     10 C         142.1208  140.4652  167.4096 C.ar    1  UNL1        0.0437
     11 C         142.6299  139.3385  168.2589 C.ar    1  UNL1        0.0017
     12 C         143.4313  138.2335  167.6371 C.ar    1  UNL1       -0.0001
     13 C         143.7235  138.2552  166.1660 C.ar    1  UNL1        0.0000
     14 C         143.2143  139.3818  165.3167 C.ar    1  UNL1        0.0014
     15 C         142.4130  140.4868  165.9385 C.ar    1  UNL1        0.0017
     16 C         143.5066  139.4034  163.8456 C.ar    1  UNL1        0.0192
     17 C         142.9983  138.3017  162.9637 C.ar    1  UNL1        0.0031
     18 C         143.2905  138.3233  161.4926 C.ar    1  UNL1        0.0207
     19 C         144.0910  139.4467  160.9034 C.ar    1  UNL1        0.0989
     20 N         144.5992  140.5485  161.7853 N.ar    1  UNL1       -0.2423
     21 C         144.3070  140.5268  163.2564 C.ar    1  UNL1        0.0988
     22 C         140.2595  141.1331  167.0643 C.3     1  UNL1        0.0715
     23 C         139.8950  142.0108  165.9038 C.3     1  UNL1        0.0066
     24 C         138.8350  141.5736  164.9366 C.3     1  UNL1        0.0002
     25 C         138.1396  140.2587  165.1299 C.3     1  UNL1        0.0000
     26 C         138.5042  139.3809  166.2904 C.3     1  UNL1        0.0002
     27 C         139.5641  139.8181  167.2576 C.3     1  UNL1        0.0066
@<TRIPOS>BOND
     1     1     2    1
     2     2     3    2
     3     3     4    1
     4     4    10    1
     5    10    11   ar
     6    11    12   ar
     7    12    13   ar
     8    13    14   ar
     9    14    16    1
    10    16    17   ar
    11    17    18   ar
    12    18    19   ar
    13    19    20   ar
    14    20    21   ar
    15    14    15   ar
    16     4    22    1
    17    22    23    1
    18    23    24    1
    19    24    25    1
    20    25    26    1
    21    26    27    1
    22     4     5    1
    23     5     6    2
    24     6     7    1
    25     6     2    1
    26    15    10   ar
    27    27    22    1
    28    21    16   ar
    29     7     8    1
    30     7     9    1
@<TRIPOS>MOLECULE
*****
 27 30 0 0 0
SMALL
GASTEIGER

@<TRIPOS>ATOM
      1 C         139.6160  142.9308  170.8955 C.3     1  UNL1        0.0597
      2 C         140.1295  142.0003  169.8370 C.2     1  UNL1        0.1396
      3 N         140.6315  142.3987  168.4808 N.2     1  UNL1       -0.2227
      4 C         141.0434  141.1525  167.7546 C.3     1  UNL1        0.2764
      5 N         140.7959  139.9839  168.6618 N.2     1  UNL1       -0.0450
      6 C         140.2311  140.5079  169.9489 C.2     1  UNL1        0.3285
      7 N         139.8371  139.6841  171.1389 N.pl3   1  UNL1       -0.2454
      8 H         139.9419  138.7054  171.1165 H       1  UNL1        0.2885
      9 H         139.4737  140.1220  171.9422 H       1  UNL1        0.2885
     10 C         141.5282  140.1049  166.7967 C.ar    1  UNL1        0.0437
     11 C         142.7499  139.2981  167.1229 C.ar    1  UNL1        0.0017
     12 C         143.2347  138.2505  166.1650 C.ar    1  UNL1       -0.0001
     13 C         142.4976  138.0097  164.8810 C.ar    1  UNL1        0.0000
     14 C         141.2759  138.8164  164.5548 C.ar    1  UNL1        0.0014
     15 C         140.7911  139.8640  165.5126 C.ar    1  UNL1        0.0017
     16 C         140.5388  138.5755  163.2708 C.ar    1  UNL1        0.0192
     17 C         139.0666  138.2892  163.2934 C.ar    1  UNL1        0.0031
     18 C         138.3296  138.0483  162.0094 C.ar    1  UNL1        0.0207
     19 C         139.0647  138.0937  160.7027 C.ar    1  UNL1        0.0989
     20 N         140.5370  138.3800  160.6801 N.ar    1  UNL1       -0.2423
     21 C         141.2740  138.6209  161.9641 C.ar    1  UNL1        0.0988
     22 C         141.3922  142.1021  166.6470 C.3     1  UNL1        0.0715
     23 C         140.3110  142.8818  165.9593 C.3     1  UNL1        0.0066
     24 C         140.6598  143.8314  164.8517 C.3     1  UNL1        0.0002
     25 C         142.0898  144.0013  164.4319 C.3     1  UNL1        0.0000
     26 C         143.1710  143.2215  165.1197 C.3     1  UNL1        0.0002
     27 C         142.8222  142.2719  166.2272 C.3     1  UNL1        0.0066
@<TRIPOS>BOND
     1     1     2    1
     2     2     3    2
     3     3     4    1
     4     4    10    1
     5    10    11   ar
     6    11    12   ar
     7    12    13   ar
     8    13    14   ar
     9    14    16    1
    10    16    17   ar
    11    17    18   ar
    12    18    19   ar
    13    19    20   ar
    14    20    21   ar
    15    14    15   ar
    16     4    22    1
    17    22    23    1
    18    23    24    1
    19    24    25    1
    20    25    26    1
    21    26    27    1
    22     4     5    1
    23     5     6    2
    24     6     7    1
    25     6     2    1
    26    15    10   ar
    27    27    22    1
    28    21    16   ar
    29     7     8    1
    30     7     9    1
@<TRIPOS>MOLECULE
*****
 27 30 0 0 0
SMALL
GASTEIGER

@<TRIPOS>ATOM
      1 C         142.1219  140.4229  160.1770 C.3     1  UNL1        0.0597
      2 C         141.4789  140.1630  161.5071 C.2     1  UNL1        0.1396
      3 N         140.7648  141.1745  162.3538 N.2     1  UNL1       -0.2227
      4 C         140.2816  140.4826  163.5939 C.3     1  UNL1        0.2764
      5 N         140.6972  139.0436  163.5137 N.2     1  UNL1       -0.0450
      6 C         141.4372  138.8460  162.2239 C.2     1  UNL1        0.3285
      7 N         142.0311  137.5578  161.7366 N.pl3   1  UNL1       -0.2454
      8 H         141.9514  136.7417  162.2815 H       1  UNL1        0.2885
      9 H         142.5006  137.5282  160.8717 H       1  UNL1        0.2885
     10 C         139.6856  140.0737  164.9083 C.ar    1  UNL1        0.0437
     11 C         138.6239  139.0150  164.9534 C.ar    1  UNL1        0.0017
     12 C         138.0279  138.6062  166.2678 C.ar    1  UNL1       -0.0001
     13 C         138.4935  139.2560  167.5370 C.ar    1  UNL1        0.0000
     14 C         139.5552  140.3146  167.4919 C.ar    1  UNL1        0.0014
     15 C         140.1512  140.7235  166.1775 C.ar    1  UNL1        0.0017
     16 C         140.0208  140.9644  168.7611 C.ar    1  UNL1        0.0192
     17 C         140.5162  142.3801  168.7410 C.ar    1  UNL1        0.0031
     18 C         140.9818  143.0299  170.0102 C.ar    1  UNL1        0.0207
     19 C         140.9521  142.2640  171.2996 C.ar    1  UNL1        0.0989
     20 N         140.4568  140.8484  171.3197 N.ar    1  UNL1       -0.2423
     21 C         139.9911  140.1986  170.0505 C.ar    1  UNL1        0.0988
     22 C         139.7415  141.8362  163.9490 C.3     1  UNL1        0.0715
     23 C         140.6832  142.9618  164.2588 C.3     1  UNL1        0.0066
     24 C         140.1431  144.3155  164.6139 C.3     1  UNL1        0.0002
     25 C         138.6612  144.5434  164.6591 C.3     1  UNL1        0.0000
     26 C         137.7194  143.4176  164.3492 C.3     1  UNL1        0.0002
     27 C         138.2596  142.0641  163.9942 C.3     1  UNL1        0.0066
@<TRIPOS>BOND
     1     1     2    1
     2     2     3    2
     3     3     4    1
     4     4    10    1
     5    10    11   ar
     6    11    12   ar
     7    12    13   ar
     8    13    14   ar
     9    14    16    1
    10    16    17   ar
    11    17    18   ar
    12    18    19   ar
    13    19    20   ar
    14    20    21   ar
    15    14    15   ar
    16     4    22    1
    17    22    23    1
    18    23    24    1
    19    24    25    1
    20    25    26    1
    21    26    27    1
    22     4     5    1
    23     5     6    2
    24     6     7    1
    25     6     2    1
    26    15    10   ar
    27    27    22    1
    28    21    16   ar
    29     7     8    1
    30     7     9    1
@<TRIPOS>MOLECULE
*****
 27 30 0 0 0
SMALL
GASTEIGER

@<TRIPOS>ATOM
      1 C         140.1425  142.8767  170.8085 C.3     1  UNL1        0.0597
      2 C         140.0388  141.8887  169.6846 C.2     1  UNL1        0.1396
      3 N         140.0856  142.2108  168.2203 N.2     1  UNL1       -0.2227
      4 C         139.9459  140.9263  167.4584 C.3     1  UNL1        0.2764
      5 N         139.8128  139.8103  168.4518 N.2     1  UNL1       -0.0450
      6 C         139.8702  140.4050  169.8277 C.2     1  UNL1        0.3285
      7 N         139.7757  139.6490  171.1197 N.pl3   1  UNL1       -0.2454
      8 H         139.6652  138.6708  171.1106 H       1  UNL1        0.2885
      9 H         139.8240  140.1310  171.9767 H       1  UNL1        0.2885
     10 C         139.8289  139.8270  166.4445 C.ar    1  UNL1        0.0437
     11 C         138.6647  138.8825  166.4933 C.ar    1  UNL1        0.0017
     12 C         138.5477  137.7833  165.4794 C.ar    1  UNL1       -0.0001
     13 C         139.5951  137.6285  164.4168 C.ar    1  UNL1        0.0000
     14 C         140.7593  138.5730  164.3681 C.ar    1  UNL1        0.0014
     15 C         140.8763  139.6722  165.3819 C.ar    1  UNL1        0.0017
     16 C         141.8067  138.4182  163.3054 C.ar    1  UNL1        0.0192
     17 C         141.4511  137.7986  161.9865 C.ar    1  UNL1        0.0031
     18 C         142.4984  137.6438  160.9239 C.ar    1  UNL1        0.0207
     19 C         143.9013  138.1087  161.1802 C.ar    1  UNL1        0.0989
     20 N         144.2569  138.7283  162.4991 N.ar    1  UNL1       -0.2423
     21 C         143.2096  138.8831  163.5618 C.ar    1  UNL1        0.0988
     22 C         140.0546  141.8125  166.2531 C.3     1  UNL1        0.0715
     23 C         138.8980  141.9353  165.3058 C.3     1  UNL1        0.0066
     24 C         139.0067  142.8215  164.1004 C.3     1  UNL1        0.0002
     25 C         140.2718  143.5850  163.8424 C.3     1  UNL1        0.0000
     26 C         141.4284  143.4621  164.7898 C.3     1  UNL1        0.0002
     27 C         141.3197  142.5759  165.9951 C.3     1  UNL1        0.0066
@<TRIPOS>BOND
     1     1     2    1
     2     2     3    2
     3     3     4    1
     4     4    10    1
     5    10    11   ar
     6    11    12   ar
     7    12    13   ar
     8    13    14   ar
     9    14    16    1
    10    16    17   ar
    11    17    18   ar
    12    18    19   ar
    13    19    20   ar
    14    20    21   ar
    15    14    15   ar
    16     4    22    1
    17    22    23    1
    18    23    24    1
    19    24    25    1
    20    25    26    1
    21    26    27    1
    22     4     5    1
    23     5     6    2
    24     6     7    1
    25     6     2    1
    26    15    10   ar
    27    27    22    1
    28    21    16   ar
    29     7     8    1
    30     7     9    1
@<TRIPOS>MOLECULE
*****
 27 30 0 0 0
SMALL
GASTEIGER

@<TRIPOS>ATOM
      1 C         138.9519  140.3918  170.3166 C.3     1  UNL1        0.0597
      2 C         139.8148  141.0684  169.2931 C.2     1  UNL1        0.1396
      3 N         140.3926  140.4290  168.0654 N.2     1  UNL1       -0.2227
      4 C         141.1863  141.4687  167.3312 C.3     1  UNL1        0.2764
      5 N         141.0990  142.7507  168.1051 N.2     1  UNL1       -0.0450
      6 C         140.2514  142.5033  169.3177 C.2     1  UNL1        0.3285
      7 N         139.9017  143.5134  170.3700 N.pl3   1  UNL1       -0.2454
      8 H         140.2381  144.4358  170.2980 H       1  UNL1        0.2885
      9 H         139.3358  143.2539  171.1327 H       1  UNL1        0.2885
     10 C         142.0354  142.2757  166.3942 C.ar    1  UNL1        0.0437
     11 C         143.4991  142.4514  166.6712 C.ar    1  UNL1        0.0017
     12 C         144.3481  143.2584  165.7342 C.ar    1  UNL1       -0.0001
     13 C         143.7334  143.8897  164.5202 C.ar    1  UNL1        0.0000
     14 C         142.2697  143.7140  164.2433 C.ar    1  UNL1        0.0014
     15 C         141.4207  142.9070  165.1802 C.ar    1  UNL1        0.0017
     16 C         141.6550  144.3452  163.0293 C.ar    1  UNL1        0.0192
     17 C         140.3900  145.1410  163.1569 C.ar    1  UNL1        0.0031
     18 C         139.7753  145.7722  161.9430 C.ar    1  UNL1        0.0207
     19 C         140.4257  145.6077  160.6014 C.ar    1  UNL1        0.0989
     20 N         141.6908  144.8120  160.4738 N.ar    1  UNL1       -0.2423
     21 C         142.3054  144.1807  161.6877 C.ar    1  UNL1        0.0988
     22 C         141.4511  140.3555  166.3614 C.3     1  UNL1        0.0715
     23 C         142.7332  139.5810  166.4406 C.3     1  UNL1        0.0066
     24 C         142.9981  138.4676  165.4707 C.3     1  UNL1        0.0002
     25 C         141.9807  138.1289  164.4218 C.3     1  UNL1        0.0000
     26 C         140.6986  138.9035  164.3426 C.3     1  UNL1        0.0002
     27 C         140.4338  140.0168  165.3124 C.3     1  UNL1        0.0066
@<TRIPOS>BOND
     1     1     2    1
     2     2     3    2
     3     3     4    1
     4     4    10    1
     5    10    11   ar
     6    11    12   ar
     7    12    13   ar
     8    13    14   ar
     9    14    16    1
    10    16    17   ar
    11    17    18   ar
    12    18    19   ar
    13    19    20   ar
    14    20    21   ar
    15    14    15   ar
    16     4    22    1
    17    22    23    1
    18    23    24    1
    19    24    25    1
    20    25    26    1
    21    26    27    1
    22     4     5    1
    23     5     6    2
    24     6     7    1
    25     6     2    1
    26    15    10   ar
    27    27    22    1
    28    21    16   ar
    29     7     8    1
    30     7     9    1
@<TRIPOS>MOLECULE
*****
 27 30 0 0 0
SMALL
GASTEIGER

@<TRIPOS>ATOM
      1 C         138.7279  142.9011  160.3702 C.3     1  UNL1        0.0597
      2 C         138.7871  142.4177  161.7890 C.2     1  UNL1        0.1396
      3 N         139.4466  141.1571  162.2641 N.2     1  UNL1       -0.2227
      4 C         139.2642  141.0704  163.7505 C.3     1  UNL1        0.2764
      5 N         138.4919  142.2774  164.1939 N.2     1  UNL1       -0.0450
      6 C         138.1970  143.1102  162.9816 C.2     1  UNL1        0.3285
      7 N         137.4442  144.4074  162.9649 N.pl3   1  UNL1       -0.2454
      8 H         137.0935  144.7838  163.8043 H       1  UNL1        0.2885
      9 H         137.3009  144.8824  162.1146 H       1  UNL1        0.2885
     10 C         139.2423  140.7159  165.2079 C.ar    1  UNL1        0.0437
     11 C         138.2988  139.6632  165.7095 C.ar    1  UNL1        0.0017
     12 C         138.2769  139.3087  167.1669 C.ar    1  UNL1       -0.0001
     13 C         139.1985  140.0069  168.1225 C.ar    1  UNL1        0.0000
     14 C         140.1420  141.0595  167.6208 C.ar    1  UNL1        0.0014
     15 C         140.1639  141.4140  166.1635 C.ar    1  UNL1        0.0017
     16 C         141.0636  141.7577  168.5764 C.ar    1  UNL1        0.0192
     17 C         142.4922  141.3169  168.6980 C.ar    1  UNL1        0.0031
     18 C         143.4138  142.0151  169.6536 C.ar    1  UNL1        0.0207
     19 C         142.9068  143.1540  170.4877 C.ar    1  UNL1        0.0989
     20 N         141.4782  143.5948  170.3662 N.ar    1  UNL1       -0.2423
     21 C         140.5566  142.8966  169.4105 C.ar    1  UNL1        0.0988
     22 C         140.0319  139.7893  163.6117 C.3     1  UNL1        0.0715
     23 C         139.3469  138.5559  163.1023 C.3     1  UNL1        0.0066
     24 C         140.1147  137.2746  162.9636 C.3     1  UNL1        0.0002
     25 C         141.5674  137.2269  163.3341 C.3     1  UNL1        0.0000
     26 C         142.2524  138.4604  163.8435 C.3     1  UNL1        0.0002
     27 C         141.4847  139.7416  163.9823 C.3     1  UNL1        0.0066
@<TRIPOS>BOND
     1     1     2    1
     2     2     3    2
     3     3     4    1
     4     4    10    1
     5    10    11   ar
     6    11    12   ar
     7    12    13   ar
     8    13    14   ar
     9    14    16    1
    10    16    17   ar
    11    17    18   ar
    12    18    19   ar
    13    19    20   ar
    14    20    21   ar
    15    14    15   ar
    16     4    22    1
    17    22    23    1
    18    23    24    1
    19    24    25    1
    20    25    26    1
    21    26    27    1
    22     4     5    1
    23     5     6    2
    24     6     7    1
    25     6     2    1
    26    15    10   ar
    27    27    22    1
    28    21    16   ar
    29     7     8    1
    30     7     9    1
