@<TRIPOS>MOLECULE
*****
 43 48 0 0 0
SMALL
GASTEIGER

@<TRIPOS>ATOM
      1 C         141.2187  138.2254  164.5348 C.3     1  UNL1        0.0938
      2 C         139.8555  138.5342  165.0789 C.3     1  UNL1        0.0287
      3 C         138.6706  138.5657  164.1596 C.3     1  UNL1        0.0193
      4 C         138.8490  138.2885  162.6963 C.3     1  UNL1        0.0700
      5 C         140.2123  137.9797  162.1522 C.3     1  UNL1        0.0193
      6 C         141.3972  137.9482  163.0714 C.3     1  UNL1        0.0287
      7 C         139.5281  138.2598  163.1609 C.3     1  UNL1        0.1562
      8 O         140.5995  138.2313  163.9921 O.3     1  UNL1       -0.3571
      9 N         137.6640  138.3201  161.7770 N.3     1  UNL1       -0.2926
     10 H         136.8381  138.4311  162.3651 H       1  UNL1        0.1236
     11 C         137.5750  139.3642  160.7038 C.3     1  UNL1        0.1152
     12 C         137.9806  140.7782  160.9975 C.ar    1  UNL1        0.0765
     13 C         137.4101  141.4902  162.1880 C.ar    1  UNL1        0.0193
     14 C         137.8157  142.9041  162.4817 C.ar    1  UNL1        0.0411
     15 C         138.7919  143.6060  161.5848 C.ar    1  UNL1        0.1708
     16 C         139.3625  142.8940  160.3943 C.ar    1  UNL1        0.1682
     17 N         138.9568  141.4801  160.1006 N.ar    1  UNL1       -0.2304
     18 N         140.3387  143.5959  159.4974 N.am    1  UNL1       -0.2639
     19 C         140.7443  145.0098  159.7910 C.2     1  UNL1        0.2718
     20 O         141.7205  145.7117  158.8942 O.2     1  UNL1       -0.2707
     21 C         140.1737  145.7219  160.9816 C.3     1  UNL1        0.2898
     22 O         139.1975  145.0200  161.8785 O.3     1  UNL1       -0.4628
     23 H         140.7131  143.1285  158.7160 H       1  UNL1        0.1565
     24 C         142.4037  138.1938  165.4540 C.3     1  UNL1        0.0429
     25 C         142.9381  139.4703  166.0329 C.3     1  UNL1        0.1273
     26 C         143.5823  140.4875  165.1384 C.ar    1  UNL1        0.0364
     27 C         144.9508  140.2347  164.5788 C.ar    1  UNL1        0.1572
     28 F         145.6751  138.9645  164.9137 F       1  UNL1       -0.2028
     29 C         145.5951  141.2520  163.6843 C.ar    1  UNL1        0.1281
     30 N         144.8708  142.5221  163.3494 N.ar    1  UNL1       -0.2400
     31 C         143.5022  142.7750  163.9091 C.ar    1  UNL1        0.0990
     32 C         142.7779  144.0451  163.5742 C.ar    1  UNL1        0.0254
     33 C         141.4094  144.2980  164.1338 C.ar    1  UNL1        0.0593
     34 C         140.7652  143.2807  165.0282 C.ar    1  UNL1        0.2250
     35 N         141.4895  142.0106  165.3631 N.ar    1  UNL1       -0.2104
     36 C         142.8580  141.7577  164.8035 C.ar    1  UNL1        0.1007
     37 O         139.3966  143.5336  165.5879 O.3     1  UNL1       -0.4561
     38 C         138.7763  144.8939  165.4666 C.3     1  UNL1        0.2542
     39 C         142.8282  139.7295  167.5063 C.2     1  UNL1        0.3208
     40 O         143.2699  138.6837  168.4867 O.2     1  UNL1       -0.2498
     41 O         142.2766  141.0344  167.9991 O.3     1  UNL1       -0.4483
     42 C         143.7001  142.2221  169.8193 C.3     1  UNL1        0.0513
     43 C         143.2088  142.1374  168.4046 C.3     1  UNL1        0.2086
@<TRIPOS>BOND
     1    42    43    1
     2    43    41    1
     3    41    39    1
     4    39    40    2
     5    39    25    1
     6    25    24    1
     7    24     1    1
     8     1     2    1
     9     2     3    1
    10     3     4    1
    11     4     9    1
    12     9    11    1
    13    11    12    1
    14    12    13   ar
    15    13    14   ar
    16    14    15   ar
    17    15    16   ar
    18    16    17   ar
    19    16    18    1
    20    18    19   am
    21    19    20    2
    22    19    21    1
    23    21    22    1
    24     4     5    1
    25     5     6    1
    26     4     7    1
    27     7     8    1
    28    25    26    1
    29    26    27   ar
    30    27    28    1
    31    27    29   ar
    32    29    30   ar
    33    30    31   ar
    34    31    32   ar
    35    32    33   ar
    36    33    34   ar
    37    34    37    1
    38    37    38    1
    39    34    35   ar
    40    35    36   ar
    41     6     1    1
    42    36    26   ar
    43     8     1    1
    44    36    31   ar
    45    17    12   ar
    46    22    15    1
    47     9    10    1
    48    18    23    1
@<TRIPOS>MOLECULE
*****
 43 48 0 0 0
SMALL
GASTEIGER

@<TRIPOS>ATOM
      1 C         143.0227  141.5053  165.4569 C.3     1  UNL1        0.0938
      2 C         143.4969  140.1279  165.8146 C.3     1  UNL1        0.0287
      3 C         144.0315  139.2184  164.7484 C.3     1  UNL1        0.0193
      4 C         144.0919  139.6861  163.3245 C.3     1  UNL1        0.0700
      5 C         143.6177  141.0635  162.9668 C.3     1  UNL1        0.0193
      6 C         143.0831  141.9731  164.0330 C.3     1  UNL1        0.0287
      7 C         143.7909  140.2203  163.8740 C.3     1  UNL1        0.1562
      8 O         143.3076  141.0428  164.8381 O.3     1  UNL1       -0.3571
      9 N         144.6265  138.7765  162.2582 N.3     1  UNL1       -0.2926
     10 H         145.3769  138.2326  162.6842 H       1  UNL1        0.1236
     11 C         143.7138  137.7981  161.5801 C.3     1  UNL1        0.1152
     12 C         142.2321  138.0323  161.5774 C.ar    1  UNL1        0.0765
     13 C         141.3902  137.5228  162.7095 C.ar    1  UNL1        0.0193
     14 C         139.9087  137.7570  162.7067 C.ar    1  UNL1        0.0411
     15 C         139.2690  138.5006  161.5719 C.ar    1  UNL1        0.1708
     16 C         140.1109  139.0101  160.4398 C.ar    1  UNL1        0.1682
     17 N         141.5924  138.7759  160.4426 N.ar    1  UNL1       -0.2304
     18 N         139.4712  139.7537  159.3050 N.am    1  UNL1       -0.2639
     19 C         137.9896  139.9878  159.3022 C.2     1  UNL1        0.2718
     20 O         137.3499  140.7314  158.1674 O.2     1  UNL1       -0.2707
     21 C         137.1476  139.4784  160.4344 C.3     1  UNL1        0.2898
     22 O         137.7873  138.7348  161.5692 O.3     1  UNL1       -0.4628
     23 H         140.0238  140.0880  158.5620 H       1  UNL1        0.1565
     24 C         142.4881  142.4150  166.5231 C.3     1  UNL1        0.0429
     25 C         141.1652  142.1207  167.1660 C.3     1  UNL1        0.1273
     26 C         140.1408  141.3049  166.4345 C.ar    1  UNL1        0.0364
     27 C         139.8994  139.8774  166.8268 C.ar    1  UNL1        0.1572
     28 F         140.6824  139.2657  167.9506 F       1  UNL1       -0.2028
     29 C         138.8750  139.0615  166.0954 C.ar    1  UNL1        0.1281
     30 N         138.0921  139.6731  164.9716 N.ar    1  UNL1       -0.2400
     31 C         138.3335  141.1007  164.5793 C.ar    1  UNL1        0.0990
     32 C         137.5506  141.7124  163.4555 C.ar    1  UNL1        0.0254
     33 C         137.7920  143.1398  163.0632 C.ar    1  UNL1        0.0593
     34 C         138.8164  143.9557  163.7946 C.ar    1  UNL1        0.2250
     35 N         139.5993  143.3440  164.9184 N.ar    1  UNL1       -0.2104
     36 C         139.3579  141.9165  165.3107 C.ar    1  UNL1        0.1007
     37 O         139.0578  145.3832  163.4023 O.3     1  UNL1       -0.4561
     38 C         140.0758  145.7100  162.3502 C.3     1  UNL1        0.2542
     39 C         140.8666  142.6423  168.5404 C.2     1  UNL1        0.3208
     40 O         140.0301  143.8758  168.7091 O.2     1  UNL1       -0.2498
     41 O         141.4047  141.9303  169.7460 O.3     1  UNL1       -0.4483
     42 C         139.0605  140.9064  170.2005 C.3     1  UNL1        0.0513
     43 C         140.4818  141.1356  170.6217 C.3     1  UNL1        0.2086
@<TRIPOS>BOND
     1    42    43    1
     2    43    41    1
     3    41    39    1
     4    39    40    2
     5    39    25    1
     6    25    24    1
     7    24     1    1
     8     1     2    1
     9     2     3    1
    10     3     4    1
    11     4     9    1
    12     9    11    1
    13    11    12    1
    14    12    13   ar
    15    13    14   ar
    16    14    15   ar
    17    15    16   ar
    18    16    17   ar
    19    16    18    1
    20    18    19   am
    21    19    20    2
    22    19    21    1
    23    21    22    1
    24     4     5    1
    25     5     6    1
    26     4     7    1
    27     7     8    1
    28    25    26    1
    29    26    27   ar
    30    27    28    1
    31    27    29   ar
    32    29    30   ar
    33    30    31   ar
    34    31    32   ar
    35    32    33   ar
    36    33    34   ar
    37    34    37    1
    38    37    38    1
    39    34    35   ar
    40    35    36   ar
    41     6     1    1
    42    36    26   ar
    43     8     1    1
    44    36    31   ar
    45    17    12   ar
    46    22    15    1
    47     9    10    1
    48    18    23    1
@<TRIPOS>MOLECULE
*****
 43 48 0 0 0
SMALL
GASTEIGER

@<TRIPOS>ATOM
      1 C         142.5568  142.9691  165.4490 C.3     1  UNL1        0.0938
      2 C         141.0776  143.2117  165.3933 C.3     1  UNL1        0.0287
      3 C         140.5162  144.2014  164.4160 C.3     1  UNL1        0.0193
      4 C         141.4340  144.9485  163.4943 C.3     1  UNL1        0.0700
      5 C         142.9132  144.7059  163.5499 C.3     1  UNL1        0.0193
      6 C         143.4746  143.7162  164.5273 C.3     1  UNL1        0.0287
      7 C         141.7881  144.4161  164.0129 C.3     1  UNL1        0.1562
      8 O         142.2957  143.5211  164.8967 O.3     1  UNL1       -0.3571
      9 N         140.8725  145.9382  162.5169 N.3     1  UNL1       -0.2926
     10 H         141.6010  146.6321  162.3491 H       1  UNL1        0.1236
     11 C         140.3964  145.4763  161.1715 C.3     1  UNL1        0.1152
     12 C         141.0059  144.2616  160.5367 C.ar    1  UNL1        0.0765
     13 C         140.3276  142.9296  160.6619 C.ar    1  UNL1        0.0193
     14 C         140.9371  141.7150  160.0271 C.ar    1  UNL1        0.0411
     15 C         142.2249  141.8322  159.2670 C.ar    1  UNL1        0.1708
     16 C         142.9033  143.1642  159.1418 C.ar    1  UNL1        0.1682
     17 N         142.2938  144.3788  159.7767 N.ar    1  UNL1       -0.2304
     18 N         144.1912  143.2815  158.3818 N.am    1  UNL1       -0.2639
     19 C         144.8006  142.0668  157.7469 C.2     1  UNL1        0.2718
     20 O         146.0885  142.1841  156.9869 O.2     1  UNL1       -0.2707
     21 C         144.1223  140.7348  157.8721 C.3     1  UNL1        0.2898
     22 O         142.8344  140.6175  158.6322 O.3     1  UNL1       -0.4628
     23 H         144.6364  144.1557  158.2996 H       1  UNL1        0.1565
     24 C         143.1183  141.9793  166.4264 C.3     1  UNL1        0.0429
     25 C         142.9827  140.5084  166.1657 C.3     1  UNL1        0.1273
     26 C         142.8020  140.0088  164.7630 C.ar    1  UNL1        0.0364
     27 C         143.9802  139.9277  163.8382 C.ar    1  UNL1        0.1572
     28 F         145.3390  140.3463  164.3162 F       1  UNL1       -0.2028
     29 C         143.7996  139.4281  162.4354 C.ar    1  UNL1        0.1281
     30 N         142.4408  139.0095  161.9575 N.ar    1  UNL1       -0.2400
     31 C         141.2626  139.0906  162.8823 C.ar    1  UNL1        0.0990
     32 C         139.9038  138.6720  162.4044 C.ar    1  UNL1        0.0254
     33 C         138.7256  138.7531  163.3292 C.ar    1  UNL1        0.0593
     34 C         138.9062  139.2527  164.7319 C.ar    1  UNL1        0.2250
     35 N         140.2650  139.6713  165.2098 N.ar    1  UNL1       -0.2104
     36 C         141.4432  139.5902  164.2851 C.ar    1  UNL1        0.1007
     37 O         137.7280  139.3338  165.6567 O.3     1  UNL1       -0.4561
     38 C         137.7110  138.5283  166.9220 C.3     1  UNL1        0.2542
     39 C         143.0277  139.5371  167.3079 C.2     1  UNL1        0.3208
     40 O         143.6941  138.2046  167.1335 O.2     1  UNL1       -0.2498
     41 O         142.4062  139.8982  168.6245 O.3     1  UNL1       -0.4483
     42 C         140.1305  141.1478  168.5263 C.3     1  UNL1        0.0513
     43 C         140.9140  139.8932  168.7760 C.3     1  UNL1        0.2086
@<TRIPOS>BOND
     1    42    43    1
     2    43    41    1
     3    41    39    1
     4    39    40    2
     5    39    25    1
     6    25    24    1
     7    24     1    1
     8     1     2    1
     9     2     3    1
    10     3     4    1
    11     4     9    1
    12     9    11    1
    13    11    12    1
    14    12    13   ar
    15    13    14   ar
    16    14    15   ar
    17    15    16   ar
    18    16    17   ar
    19    16    18    1
    20    18    19   am
    21    19    20    2
    22    19    21    1
    23    21    22    1
    24     4     5    1
    25     5     6    1
    26     4     7    1
    27     7     8    1
    28    25    26    1
    29    26    27   ar
    30    27    28    1
    31    27    29   ar
    32    29    30   ar
    33    30    31   ar
    34    31    32   ar
    35    32    33   ar
    36    33    34   ar
    37    34    37    1
    38    37    38    1
    39    34    35   ar
    40    35    36   ar
    41     6     1    1
    42    36    26   ar
    43     8     1    1
    44    36    31   ar
    45    17    12   ar
    46    22    15    1
    47     9    10    1
    48    18    23    1
@<TRIPOS>MOLECULE
*****
 43 48 0 0 0
SMALL
GASTEIGER

@<TRIPOS>ATOM
      1 C         143.4045  138.7955  165.0511 C.3     1  UNL1        0.0938
      2 C         144.5032  139.4233  164.2457 C.3     1  UNL1        0.0287
      3 C         144.5288  139.2582  162.7551 C.3     1  UNL1        0.0193
      4 C         143.4557  138.4653  162.0698 C.3     1  UNL1        0.0700
      5 C         142.3569  137.8375  162.8751 C.3     1  UNL1        0.0193
      6 C         142.3314  138.0026  164.3658 C.3     1  UNL1        0.0287
      7 C         143.3995  138.5282  162.8888 C.3     1  UNL1        0.1562
      8 O         143.3764  138.6775  164.2367 O.3     1  UNL1       -0.3571
      9 N         143.4813  138.3002  160.5791 N.3     1  UNL1       -0.2926
     10 H         143.2831  137.3181  160.3881 H       1  UNL1        0.1236
     11 C         142.5518  139.1045  159.7194 C.3     1  UNL1        0.1152
     12 C         142.3799  140.5734  159.9707 C.ar    1  UNL1        0.0765
     13 C         143.4795  141.5291  159.6135 C.ar    1  UNL1        0.0193
     14 C         143.3075  142.9978  159.8648 C.ar    1  UNL1        0.0411
     15 C         142.0361  143.5108  160.4734 C.ar    1  UNL1        0.1708
     16 C         140.9366  142.5551  160.8306 C.ar    1  UNL1        0.1682
     17 N         141.1085  141.0864  160.5792 N.ar    1  UNL1       -0.2304
     18 N         139.6652  143.0681  161.4391 N.am    1  UNL1       -0.2639
     19 C         139.4933  144.5369  161.6905 C.2     1  UNL1        0.2718
     20 O         138.2219  145.0499  162.2990 O.2     1  UNL1       -0.2707
     21 C         140.5929  145.4927  161.3333 C.3     1  UNL1        0.2898
     22 O         141.8643  144.9797  160.7247 O.3     1  UNL1       -0.4628
     23 H         138.9436  142.4408  161.6736 H       1  UNL1        0.1565
     24 C         143.3789  138.9606  166.5418 C.3     1  UNL1        0.0429
     25 C         142.6021  140.0859  167.1585 C.3     1  UNL1        0.1273
     26 C         141.9501  141.1151  166.2835 C.ar    1  UNL1        0.0364
     27 C         142.7037  142.3508  165.8900 C.ar    1  UNL1        0.1572
     28 F         144.1092  142.5574  166.3714 F       1  UNL1       -0.2028
     29 C         142.0517  143.3801  165.0150 C.ar    1  UNL1        0.1281
     30 N         140.6461  143.1735  164.5336 N.ar    1  UNL1       -0.2400
     31 C         139.8926  141.9376  164.9272 C.ar    1  UNL1        0.0990
     32 C         138.4870  141.7310  164.4458 C.ar    1  UNL1        0.0254
     33 C         137.7335  140.4953  164.8394 C.ar    1  UNL1        0.0593
     34 C         138.3855  139.4661  165.7143 C.ar    1  UNL1        0.2250
     35 N         139.7910  139.6727  166.1957 N.ar    1  UNL1       -0.2104
     36 C         140.5446  140.9085  165.8021 C.ar    1  UNL1        0.1007
     37 O         137.6319  138.2302  166.1079 O.3     1  UNL1       -0.4561
     38 C         137.1565  138.0596  167.5203 C.3     1  UNL1        0.2542
     39 C         142.4774  140.1819  168.6503 C.2     1  UNL1        0.3208
     40 O         143.0341  139.0948  169.5210 O.2     1  UNL1       -0.2498
     41 O         141.7959  141.3652  169.2712 O.3     1  UNL1       -0.4483
     42 C         144.0751  142.5102  169.7650 C.3     1  UNL1        0.0513
     43 C         142.5860  142.5954  169.6058 C.3     1  UNL1        0.2086
@<TRIPOS>BOND
     1    42    43    1
     2    43    41    1
     3    41    39    1
     4    39    40    2
     5    39    25    1
     6    25    24    1
     7    24     1    1
     8     1     2    1
     9     2     3    1
    10     3     4    1
    11     4     9    1
    12     9    11    1
    13    11    12    1
    14    12    13   ar
    15    13    14   ar
    16    14    15   ar
    17    15    16   ar
    18    16    17   ar
    19    16    18    1
    20    18    19   am
    21    19    20    2
    22    19    21    1
    23    21    22    1
    24     4     5    1
    25     5     6    1
    26     4     7    1
    27     7     8    1
    28    25    26    1
    29    26    27   ar
    30    27    28    1
    31    27    29   ar
    32    29    30   ar
    33    30    31   ar
    34    31    32   ar
    35    32    33   ar
    36    33    34   ar
    37    34    37    1
    38    37    38    1
    39    34    35   ar
    40    35    36   ar
    41     6     1    1
    42    36    26   ar
    43     8     1    1
    44    36    31   ar
    45    17    12   ar
    46    22    15    1
    47     9    10    1
    48    18    23    1
@<TRIPOS>MOLECULE
*****
 43 48 0 0 0
SMALL
GASTEIGER

@<TRIPOS>ATOM
      1 C         143.0361  142.8783  164.7768 C.3     1  UNL1        0.0938
      2 C         143.6362  143.5666  163.5868 C.3     1  UNL1        0.0287
      3 C         142.8845  144.6676  162.8992 C.3     1  UNL1        0.0193
      4 C         141.5328  145.0803  163.4017 C.3     1  UNL1        0.0700
      5 C         140.9327  144.3920  164.5917 C.3     1  UNL1        0.0193
      6 C         141.6844  143.2910  165.2792 C.3     1  UNL1        0.0287
      7 C         141.9067  144.4717  163.8112 C.3     1  UNL1        0.1562
      8 O         142.5864  143.4762  164.4329 O.3     1  UNL1       -0.3571
      9 N         140.7811  146.1813  162.7141 N.3     1  UNL1       -0.2926
     10 H         141.3612  146.4918  161.9347 H       1  UNL1        0.1236
     11 C         139.4122  145.9216  162.1585 C.3     1  UNL1        0.1152
     12 C         138.9073  144.5145  162.0353 C.ar    1  UNL1        0.0765
     13 C         138.1085  143.9042  163.1486 C.ar    1  UNL1        0.0193
     14 C         137.6036  142.4971  163.0255 C.ar    1  UNL1        0.0411
     15 C         137.8975  141.7003  161.7891 C.ar    1  UNL1        0.1708
     16 C         138.6964  142.3106  160.6758 C.ar    1  UNL1        0.1682
     17 N         139.2012  143.7177  160.7989 N.ar    1  UNL1       -0.2304
     18 N         138.9903  141.5138  159.4394 N.am    1  UNL1       -0.2639
     19 C         138.4854  140.1067  159.3162 C.2     1  UNL1        0.2718
     20 O         138.7794  139.3099  158.0798 O.2     1  UNL1       -0.2707
     21 C         137.6866  139.4964  160.4295 C.3     1  UNL1        0.2898
     22 O         137.3926  140.2932  161.6660 O.3     1  UNL1       -0.4628
     23 H         139.5146  141.9143  158.7087 H       1  UNL1        0.1565
     24 C         143.7878  141.7772  165.4644 C.3     1  UNL1        0.0429
     25 C         143.1483  140.4326  165.6465 C.3     1  UNL1        0.1273
     26 C         142.8706  139.5665  164.4538 C.ar    1  UNL1        0.0364
     27 C         143.9751  139.2340  163.4949 C.ar    1  UNL1        0.1572
     28 F         145.3573  139.7678  163.7287 F       1  UNL1       -0.2028
     29 C         143.6974  138.3678  162.3021 C.ar    1  UNL1        0.1281
     30 N         142.3152  137.8341  162.0683 N.ar    1  UNL1       -0.2400
     31 C         141.2107  138.1666  163.0273 C.ar    1  UNL1        0.0990
     32 C         139.8285  137.6328  162.7936 C.ar    1  UNL1        0.0254
     33 C         138.7240  137.9652  163.7525 C.ar    1  UNL1        0.0593
     34 C         139.0017  138.8314  164.9452 C.ar    1  UNL1        0.2250
     35 N         140.3839  139.3651  165.1789 N.ar    1  UNL1       -0.2104
     36 C         141.4884  139.0327  164.2200 C.ar    1  UNL1        0.1007
     37 O         137.8972  139.1639  165.9042 O.3     1  UNL1       -0.4561
     38 C         137.5380  138.2015  166.9972 C.3     1  UNL1        0.2542
     39 C         142.7865  139.9542  167.0214 C.2     1  UNL1        0.3208
     40 O         143.3326  138.6533  167.5307 O.2     1  UNL1       -0.2498
     41 O         141.8787  140.7768  167.8870 O.3     1  UNL1       -0.4483
     42 C         140.9670  139.7478  170.0915 C.3     1  UNL1        0.0513
     43 C         140.7696  140.1165  168.6510 C.3     1  UNL1        0.2086
@<TRIPOS>BOND
     1    42    43    1
     2    43    41    1
     3    41    39    1
     4    39    40    2
     5    39    25    1
     6    25    24    1
     7    24     1    1
     8     1     2    1
     9     2     3    1
    10     3     4    1
    11     4     9    1
    12     9    11    1
    13    11    12    1
    14    12    13   ar
    15    13    14   ar
    16    14    15   ar
    17    15    16   ar
    18    16    17   ar
    19    16    18    1
    20    18    19   am
    21    19    20    2
    22    19    21    1
    23    21    22    1
    24     4     5    1
    25     5     6    1
    26     4     7    1
    27     7     8    1
    28    25    26    1
    29    26    27   ar
    30    27    28    1
    31    27    29   ar
    32    29    30   ar
    33    30    31   ar
    34    31    32   ar
    35    32    33   ar
    36    33    34   ar
    37    34    37    1
    38    37    38    1
    39    34    35   ar
    40    35    36   ar
    41     6     1    1
    42    36    26   ar
    43     8     1    1
    44    36    31   ar
    45    17    12   ar
    46    22    15    1
    47     9    10    1
    48    18    23    1
@<TRIPOS>MOLECULE
*****
 43 48 0 0 0
SMALL
GASTEIGER

@<TRIPOS>ATOM
      1 C         138.8272  139.2891  165.9314 C.3     1  UNL1        0.0938
      2 C         138.1783  140.2754  165.0061 C.3     1  UNL1        0.0287
      3 C         138.0372  139.9548  163.5476 C.3     1  UNL1        0.0193
      4 C         138.5450  138.6480  163.0144 C.3     1  UNL1        0.0700
      5 C         139.1939  137.6617  163.9397 C.3     1  UNL1        0.0193
      6 C         139.3350  137.9823  165.3982 C.3     1  UNL1        0.0287
      7 C         138.6448  138.7790  163.8211 C.3     1  UNL1        0.1562
      8 O         138.7724  139.0689  165.1399 O.3     1  UNL1       -0.3571
      9 N         138.4039  138.3274  161.5558 N.3     1  UNL1       -0.2926
     10 H         137.7416  139.0000  161.1693 H       1  UNL1        0.1236
     11 C         139.6097  138.3455  160.6639 C.3     1  UNL1        0.1152
     12 C         140.5291  139.5308  160.6694 C.ar    1  UNL1        0.0765
     13 C         140.1503  140.7773  159.9261 C.ar    1  UNL1        0.0193
     14 C         141.0696  141.9624  159.9317 C.ar    1  UNL1        0.0411
     15 C         142.3678  141.9011  160.6807 C.ar    1  UNL1        0.1708
     16 C         142.7466  140.6546  161.4240 C.ar    1  UNL1        0.1682
     17 N         141.8273  139.4694  161.4184 N.ar    1  UNL1       -0.2304
     18 N         144.0448  140.5933  162.1730 N.am    1  UNL1       -0.2639
     19 C         144.9642  141.7785  162.1786 C.2     1  UNL1        0.2718
     20 O         146.2623  141.7172  162.9276 O.2     1  UNL1       -0.2707
     21 C         144.5854  143.0251  161.4352 C.3     1  UNL1        0.2898
     22 O         143.2872  143.0864  160.6862 O.3     1  UNL1       -0.4628
     23 H         144.2934  139.7752  162.6609 H       1  UNL1        0.1565
     24 C         138.9683  139.6096  167.3900 C.3     1  UNL1        0.0429
     25 C         140.1670  140.3675  167.8788 C.3     1  UNL1        0.1273
     26 C         141.2937  140.6767  166.9381 C.ar    1  UNL1        0.0364
     27 C         142.4855  139.7684  166.8713 C.ar    1  UNL1        0.1572
     28 F         142.5506  138.5510  167.7452 F       1  UNL1       -0.2028
     29 C         143.6123  140.0775  165.9306 C.ar    1  UNL1        0.1281
     30 N         143.5472  141.2949  165.0567 N.ar    1  UNL1       -0.2400
     31 C         142.3552  142.2032  165.1235 C.ar    1  UNL1        0.0990
     32 C         142.2901  143.4206  164.2496 C.ar    1  UNL1        0.0254
     33 C         141.0983  144.3289  164.3164 C.ar    1  UNL1        0.0593
     34 C         139.9716  144.0197  165.2571 C.ar    1  UNL1        0.2250
     35 N         140.0367  142.8023  166.1310 N.ar    1  UNL1       -0.2104
     36 C         141.2285  141.8941  166.0642 C.ar    1  UNL1        0.1007
     37 O         138.7797  144.9281  165.3239 O.3     1  UNL1       -0.4561
     38 C         137.4431  144.4482  164.8410 C.3     1  UNL1        0.2542
     39 C         140.2388  140.8164  169.3083 C.2     1  UNL1        0.3208
     40 O         138.9773  141.0689  170.0794 O.2     1  UNL1       -0.2498
     41 O         141.5723  141.0126  169.9666 O.3     1  UNL1       -0.4483
     42 C         143.7742  142.3604  169.6756 C.3     1  UNL1        0.0513
     43 C         142.2839  142.3272  169.8422 C.3     1  UNL1        0.2086
@<TRIPOS>BOND
     1    42    43    1
     2    43    41    1
     3    41    39    1
     4    39    40    2
     5    39    25    1
     6    25    24    1
     7    24     1    1
     8     1     2    1
     9     2     3    1
    10     3     4    1
    11     4     9    1
    12     9    11    1
    13    11    12    1
    14    12    13   ar
    15    13    14   ar
    16    14    15   ar
    17    15    16   ar
    18    16    17   ar
    19    16    18    1
    20    18    19   am
    21    19    20    2
    22    19    21    1
    23    21    22    1
    24     4     5    1
    25     5     6    1
    26     4     7    1
    27     7     8    1
    28    25    26    1
    29    26    27   ar
    30    27    28    1
    31    27    29   ar
    32    29    30   ar
    33    30    31   ar
    34    31    32   ar
    35    32    33   ar
    36    33    34   ar
    37    34    37    1
    38    37    38    1
    39    34    35   ar
    40    35    36   ar
    41     6     1    1
    42    36    26   ar
    43     8     1    1
    44    36    31   ar
    45    17    12   ar
    46    22    15    1
    47     9    10    1
    48    18    23    1
@<TRIPOS>MOLECULE
*****
 43 48 0 0 0
SMALL
GASTEIGER

@<TRIPOS>ATOM
      1 C         138.2206  141.8497  164.4019 C.3     1  UNL1        0.0938
      2 C         137.7652  141.9101  162.9740 C.3     1  UNL1        0.0287
      3 C         137.8642  143.1966  162.2091 C.3     1  UNL1        0.0193
      4 C         138.4186  144.4226  162.8721 C.3     1  UNL1        0.0700
      5 C         138.8740  144.3621  164.3000 C.3     1  UNL1        0.0193
      6 C         138.7749  143.0757  165.0649 C.3     1  UNL1        0.0287
      7 C         138.3840  143.7404  163.3318 C.3     1  UNL1        0.1562
      8 O         138.2944  142.5771  164.0234 O.3     1  UNL1       -0.3571
      9 N         138.5176  145.7092  162.1072 N.3     1  UNL1       -0.2926
     10 H         138.3437  146.4619  162.7732 H       1  UNL1        0.1236
     11 C         139.7847  146.0557  161.3832 C.3     1  UNL1        0.1152
     12 C         140.7519  144.9735  161.0041 C.ar    1  UNL1        0.0765
     13 C         140.5921  144.2475  159.7013 C.ar    1  UNL1        0.0193
     14 C         141.5593  143.1654  159.3223 C.ar    1  UNL1        0.0411
     15 C         142.6861  142.8093  160.2461 C.ar    1  UNL1        0.1708
     16 C         142.8459  143.5353  161.5489 C.ar    1  UNL1        0.1682
     17 N         141.8787  144.6174  161.9279 N.ar    1  UNL1       -0.2304
     18 N         143.9727  143.1792  162.4726 N.am    1  UNL1       -0.2639
     19 C         144.9399  142.0972  162.0936 C.2     1  UNL1        0.2718
     20 O         146.0667  141.7411  163.0174 O.2     1  UNL1       -0.2707
     21 C         144.7802  141.3711  160.7908 C.3     1  UNL1        0.2898
     22 O         143.6533  141.7272  159.8670 O.3     1  UNL1       -0.4628
     23 H         144.0776  143.6558  163.3277 H       1  UNL1        0.1565
     24 C         138.1216  140.5631  165.1669 C.3     1  UNL1        0.0429
     25 C         139.3269  139.6820  165.3117 C.3     1  UNL1        0.1273
     26 C         140.6345  140.2671  165.7563 C.ar    1  UNL1        0.0364
     27 C         141.6472  140.7002  164.7381 C.ar    1  UNL1        0.1572
     28 F         141.3523  140.5482  163.2753 F       1  UNL1       -0.2028
     29 C         142.9550  141.2853  165.1827 C.ar    1  UNL1        0.1281
     30 N         143.2499  141.4373  166.6456 N.ar    1  UNL1       -0.2400
     31 C         142.2371  141.0042  167.6638 C.ar    1  UNL1        0.0990
     32 C         142.5320  141.1562  169.1267 C.ar    1  UNL1        0.0254
     33 C         141.5192  140.7231  170.1449 C.ar    1  UNL1        0.0593
     34 C         140.2116  140.1380  169.7002 C.ar    1  UNL1        0.2250
     35 N         139.9167  139.9860  168.2374 N.ar    1  UNL1       -0.2104
     36 C         140.9294  140.4191  167.2192 C.ar    1  UNL1        0.1007
     37 O         139.1988  139.7049  170.7185 O.3     1  UNL1       -0.4561
     38 C         137.7382  139.7205  170.3771 C.3     1  UNL1        0.2542
     39 C         139.2245  138.2158  165.0118 C.2     1  UNL1        0.3208
     40 O         138.3263  137.3425  165.8368 O.2     1  UNL1       -0.2498
     41 O         140.0203  137.6230  163.8870 O.3     1  UNL1       -0.4483
     42 C         138.1642  138.1713  162.1539 C.3     1  UNL1        0.0513
     43 C         139.5957  137.8505  162.4665 C.3     1  UNL1        0.2086
@<TRIPOS>BOND
     1    42    43    1
     2    43    41    1
     3    41    39    1
     4    39    40    2
     5    39    25    1
     6    25    24    1
     7    24     1    1
     8     1     2    1
     9     2     3    1
    10     3     4    1
    11     4     9    1
    12     9    11    1
    13    11    12    1
    14    12    13   ar
    15    13    14   ar
    16    14    15   ar
    17    15    16   ar
    18    16    17   ar
    19    16    18    1
    20    18    19   am
    21    19    20    2
    22    19    21    1
    23    21    22    1
    24     4     5    1
    25     5     6    1
    26     4     7    1
    27     7     8    1
    28    25    26    1
    29    26    27   ar
    30    27    28    1
    31    27    29   ar
    32    29    30   ar
    33    30    31   ar
    34    31    32   ar
    35    32    33   ar
    36    33    34   ar
    37    34    37    1
    38    37    38    1
    39    34    35   ar
    40    35    36   ar
    41     6     1    1
    42    36    26   ar
    43     8     1    1
    44    36    31   ar
    45    17    12   ar
    46    22    15    1
    47     9    10    1
    48    18    23    1
@<TRIPOS>MOLECULE
*****
 43 48 0 0 0
SMALL
GASTEIGER

@<TRIPOS>ATOM
      1 C         140.6052  143.1283  165.8681 C.3     1  UNL1        0.0938
      2 C         141.8640  143.3644  165.0873 C.3     1  UNL1        0.0287
      3 C         141.8611  144.3194  163.9307 C.3     1  UNL1        0.0193
      4 C         140.5994  145.0383  163.5548 C.3     1  UNL1        0.0700
      5 C         139.3406  144.8022  164.3355 C.3     1  UNL1        0.0193
      6 C         139.3435  143.8472  165.4922 C.3     1  UNL1        0.0287
      7 C         140.5520  144.5244  164.1963 C.3     1  UNL1        0.1562
      8 O         140.5547  143.6609  165.2422 O.3     1  UNL1       -0.3571
      9 N         140.5965  145.9933  162.3980 N.3     1  UNL1       -0.2926
     10 H         141.5479  146.3500  162.3084 H       1  UNL1        0.1236
     11 C         140.1811  145.5208  161.0364 C.3     1  UNL1        0.1152
     12 C         140.2633  144.0634  160.6908 C.ar    1  UNL1        0.0765
     13 C         141.3785  143.5601  159.8231 C.ar    1  UNL1        0.0193
     14 C         141.4607  142.1028  159.4775 C.ar    1  UNL1        0.0411
     15 C         140.4276  141.1488  159.9997 C.ar    1  UNL1        0.1708
     16 C         139.3124  141.6521  160.8673 C.ar    1  UNL1        0.1682
     17 N         139.2302  143.1094  161.2129 N.ar    1  UNL1       -0.2304
     18 N         138.2793  140.6981  161.3894 N.am    1  UNL1       -0.2639
     19 C         138.3614  139.2408  161.0439 C.2     1  UNL1        0.2718
     20 O         137.3283  138.2868  161.5660 O.2     1  UNL1       -0.2707
     21 C         139.4767  138.7374  160.1762 C.3     1  UNL1        0.2898
     22 O         140.5098  139.6914  159.6540 O.3     1  UNL1       -0.4628
     23 H         137.5473  141.0285  161.9589 H       1  UNL1        0.1565
     24 C         140.6080  142.1732  167.0248 C.3     1  UNL1        0.0429
     25 C         141.3374  140.8669  166.9171 C.3     1  UNL1        0.1273
     26 C         140.8576  139.8168  165.9595 C.ar    1  UNL1        0.0364
     27 C         139.5418  139.1352  166.1916 C.ar    1  UNL1        0.1572
     28 F         138.7058  139.5036  167.3813 F       1  UNL1       -0.2028
     29 C         139.0619  138.0850  165.2340 C.ar    1  UNL1        0.1281
     30 N         139.8979  137.7165  164.0443 N.ar    1  UNL1       -0.2400
     31 C         141.2137  138.3982  163.8123 C.ar    1  UNL1        0.0990
     32 C         142.0497  138.0298  162.6226 C.ar    1  UNL1        0.0254
     33 C         143.3655  138.7114  162.3904 C.ar    1  UNL1        0.0593
     34 C         143.8454  139.7615  163.3480 C.ar    1  UNL1        0.2250
     35 N         143.0094  140.1300  164.5377 N.ar    1  UNL1       -0.2104
     36 C         141.6936  139.4483  164.7698 C.ar    1  UNL1        0.1007
     37 O         145.1613  140.4433  163.1159 O.3     1  UNL1       -0.4561
     38 C         145.5331  141.6509  163.9242 C.3     1  UNL1        0.2542
     39 C         142.5466  140.6108  167.7669 C.2     1  UNL1        0.3208
     40 O         142.9489  139.2033  168.0941 O.2     1  UNL1       -0.2498
     41 O         143.3535  141.7622  168.2897 O.3     1  UNL1       -0.4483
     42 C         142.3856  143.1067  170.2910 C.3     1  UNL1        0.0513
     43 C         143.3415  142.0824  169.7550 C.3     1  UNL1        0.2086
@<TRIPOS>BOND
     1    42    43    1
     2    43    41    1
     3    41    39    1
     4    39    40    2
     5    39    25    1
     6    25    24    1
     7    24     1    1
     8     1     2    1
     9     2     3    1
    10     3     4    1
    11     4     9    1
    12     9    11    1
    13    11    12    1
    14    12    13   ar
    15    13    14   ar
    16    14    15   ar
    17    15    16   ar
    18    16    17   ar
    19    16    18    1
    20    18    19   am
    21    19    20    2
    22    19    21    1
    23    21    22    1
    24     4     5    1
    25     5     6    1
    26     4     7    1
    27     7     8    1
    28    25    26    1
    29    26    27   ar
    30    27    28    1
    31    27    29   ar
    32    29    30   ar
    33    30    31   ar
    34    31    32   ar
    35    32    33   ar
    36    33    34   ar
    37    34    37    1
    38    37    38    1
    39    34    35   ar
    40    35    36   ar
    41     6     1    1
    42    36    26   ar
    43     8     1    1
    44    36    31   ar
    45    17    12   ar
    46    22    15    1
    47     9    10    1
    48    18    23    1
@<TRIPOS>MOLECULE
*****
 43 48 0 0 0
SMALL
GASTEIGER

@<TRIPOS>ATOM
      1 C         139.0845  141.6828  161.1196 C.3     1  UNL1        0.0938
      2 C         140.2566  140.7649  160.9363 C.3     1  UNL1        0.0287
      3 C         140.2016  139.3631  161.4673 C.3     1  UNL1        0.0193
      4 C         138.9746  138.8793  162.1817 C.3     1  UNL1        0.0700
      5 C         137.8025  139.7972  162.3650 C.3     1  UNL1        0.0193
      6 C         137.8575  141.1990  161.8340 C.3     1  UNL1        0.0287
      7 C         138.9581  139.6557  161.9082 C.3     1  UNL1        0.1562
      8 O         139.0078  140.9232  161.4280 O.3     1  UNL1       -0.3571
      9 N         138.9197  137.4775  162.7127 N.3     1  UNL1       -0.2926
     10 H         139.6851  136.9660  162.2736 H       1  UNL1        0.1236
     11 C         139.0239  137.2299  164.1885 C.3     1  UNL1        0.1152
     12 C         139.9723  138.0418  165.0200 C.ar    1  UNL1        0.0765
     13 C         141.4521  137.8365  164.8857 C.ar    1  UNL1        0.0193
     14 C         142.4004  138.6484  165.7173 C.ar    1  UNL1        0.0411
     15 C         141.8689  139.6656  166.6831 C.ar    1  UNL1        0.1708
     16 C         140.3892  139.8709  166.8174 C.ar    1  UNL1        0.1682
     17 N         139.4409  139.0590  165.9858 N.ar    1  UNL1       -0.2304
     18 N         139.8577  140.8881  167.7832 N.am    1  UNL1       -0.2639
     19 C         140.8060  141.7000  168.6148 C.2     1  UNL1        0.2718
     20 O         140.2746  142.7172  169.5806 O.2     1  UNL1       -0.2707
     21 C         142.2859  141.4947  168.4805 C.3     1  UNL1        0.2898
     22 O         142.8173  140.4775  167.5147 O.3     1  UNL1       -0.4628
     23 H         138.8865  141.0229  167.8713 H       1  UNL1        0.1565
     24 C         139.1394  143.0846  160.5886 C.3     1  UNL1        0.0429
     25 C         139.6525  144.1956  161.4560 C.3     1  UNL1        0.1273
     26 C         139.9901  143.9303  162.8931 C.ar    1  UNL1        0.0364
     27 C         138.9266  144.0373  163.9454 C.ar    1  UNL1        0.1572
     28 F         137.5255  144.4096  163.5605 F       1  UNL1       -0.2028
     29 C         139.2642  143.7719  165.3827 C.ar    1  UNL1        0.1281
     30 N         140.6653  143.3995  165.7676 N.ar    1  UNL1       -0.2400
     31 C         141.7289  143.2925  164.7152 C.ar    1  UNL1        0.0990
     32 C         143.1300  142.9202  165.1001 C.ar    1  UNL1        0.0254
     33 C         144.1936  142.8132  164.0478 C.ar    1  UNL1        0.0593
     34 C         143.8560  143.0786  162.6106 C.ar    1  UNL1        0.2250
     35 N         142.4548  143.4509  162.2257 N.ar    1  UNL1       -0.2104
     36 C         141.3913  143.5579  163.2780 C.ar    1  UNL1        0.1007
     37 O         144.9196  142.9716  161.5582 O.3     1  UNL1       -0.4561
     38 C         144.5735  142.4592  160.1916 C.3     1  UNL1        0.2542
     39 C         139.8280  145.5721  160.8861 C.2     1  UNL1        0.3208
     40 O         139.7991  146.7679  161.7912 O.2     1  UNL1       -0.2498
     41 O         140.0325  145.7527  159.4111 O.3     1  UNL1       -0.4483
     42 C         141.7339  144.1437  158.2857 C.3     1  UNL1        0.0513
     43 C         141.3823  145.5063  158.8053 C.3     1  UNL1        0.2086
@<TRIPOS>BOND
     1    42    43    1
     2    43    41    1
     3    41    39    1
     4    39    40    2
     5    39    25    1
     6    25    24    1
     7    24     1    1
     8     1     2    1
     9     2     3    1
    10     3     4    1
    11     4     9    1
    12     9    11    1
    13    11    12    1
    14    12    13   ar
    15    13    14   ar
    16    14    15   ar
    17    15    16   ar
    18    16    17   ar
    19    16    18    1
    20    18    19   am
    21    19    20    2
    22    19    21    1
    23    21    22    1
    24     4     5    1
    25     5     6    1
    26     4     7    1
    27     7     8    1
    28    25    26    1
    29    26    27   ar
    30    27    28    1
    31    27    29   ar
    32    29    30   ar
    33    30    31   ar
    34    31    32   ar
    35    32    33   ar
    36    33    34   ar
    37    34    37    1
    38    37    38    1
    39    34    35   ar
    40    35    36   ar
    41     6     1    1
    42    36    26   ar
    43     8     1    1
    44    36    31   ar
    45    17    12   ar
    46    22    15    1
    47     9    10    1
    48    18    23    1
