@<TRIPOS>MOLECULE
*****
 29 32 0 0 0
SMALL
GASTEIGER

@<TRIPOS>ATOM
      1 O         143.7792  139.2161  157.3727 O.2     1  UNL1       -0.2262
      2 C         142.9880  138.2670  158.2230 C.2     1  UNL1        0.4051
      3 N         142.8984  138.4836  159.7045 N.am    1  UNL1       -0.2460
      4 C         143.5431  139.5988  160.4731 C.3     1  UNL1        0.0971
      5 C         143.1915  139.4276  161.9212 C.3     1  UNL1        0.0276
      6 C         142.3295  138.2065  162.0477 C.3     1  UNL1        0.0276
      7 C         142.1484  137.6231  160.6777 C.3     1  UNL1        0.0971
      8 C         142.6830  139.0046  163.2675 C.3     1  UNL1        0.0455
      9 C         142.5934  139.2213  164.7491 C.ar    1  UNL1        0.0802
     10 C         143.3870  138.4968  165.7957 C.ar    1  UNL1        0.0371
     11 C         142.9785  139.0282  167.1376 C.ar    1  UNL1        0.1016
     12 N         141.9325  140.0811  166.9204 N.ar    1  UNL1       -0.2285
     13 N         141.6945  140.2004  165.4442 N.ar    1  UNL1       -0.1695
     14 C         141.2452  140.8753  167.9913 C.ar    1  UNL1        0.0830
     15 C         140.1344  140.2569  168.7875 C.ar    1  UNL1        0.0215
     16 C         139.4471  141.0511  169.8583 C.ar    1  UNL1        0.0312
     17 C         139.8705  142.4637  170.1331 C.ar    1  UNL1        0.1402
     18 F         139.1832  143.2579  171.2040 F       1  UNL1       -0.2042
     19 C         140.9812  143.0820  169.3370 C.ar    1  UNL1        0.0312
     20 C         141.6686  142.2878  168.2660 C.ar    1  UNL1        0.0215
     21 O         142.2863  137.1012  157.5917 O.3     1  UNL1       -0.4267
     22 C         143.0559  136.1317  156.7446 C.3     1  UNL1        0.2933
     23 C         143.2358  134.7145  157.2019 C.3     1  UNL1        0.4368
     24 F         143.4156  133.2973  157.6593 F       1  UNL1       -0.1663
     25 F         143.1325  134.2430  155.7817 F       1  UNL1       -0.1663
     26 F         143.3390  135.1860  158.6222 F       1  UNL1       -0.1663
     27 C         143.6458  136.5793  155.4400 C.3     1  UNL1        0.1901
     28 O         144.9588  137.3043  155.4201 O.3     1  UNL1       -0.3783
     29 H         144.8598  138.1646  155.8572 H       1  UNL1        0.2106
@<TRIPOS>BOND
     1     1     2    2
     2     2    21    1
     3    21    22    1
     4    22    27    1
     5    27    28    1
     6    22    23    1
     7    23    24    1
     8    23    25    1
     9    23    26    1
    10     2     3   am
    11     3     4    1
    12     5     4    1
    13     5     6    1
    14     6     7    1
    15     6     8    1
    16     8     9    1
    17     9    10   ar
    18    10    11   ar
    19    11    12   ar
    20    12    14    1
    21    14    15   ar
    22    15    16   ar
    23    16    17   ar
    24    17    18    1
    25    17    19   ar
    26    19    20   ar
    27    12    13   ar
    28     7     3    1
    29    13     9   ar
    30     8     5    1
    31    20    14   ar
    32    28    29    1
@<TRIPOS>MOLECULE
*****
 29 32 0 0 0
SMALL
GASTEIGER

@<TRIPOS>ATOM
      1 O         142.9996  138.5343  170.0547 O.2     1  UNL1       -0.2262
      2 C         142.7058  139.7429  169.2164 C.2     1  UNL1        0.4051
      3 N         142.7989  139.6595  167.7216 N.am    1  UNL1       -0.2460
      4 C         143.1715  138.4425  166.9279 C.3     1  UNL1        0.0971
      5 C         143.1386  138.8094  165.4738 C.3     1  UNL1        0.0276
      6 C         142.7456  140.2532  165.3688 C.3     1  UNL1        0.0276
      7 C         142.5357  140.7786  166.7580 C.3     1  UNL1        0.0971
      8 C         143.0228  139.4591  164.1268 C.3     1  UNL1        0.0455
      9 C         143.1159  139.3757  162.6321 C.ar    1  UNL1        0.0802
     10 C         144.2035  139.9629  161.7823 C.ar    1  UNL1        0.0371
     11 C         143.8975  139.6406  160.3496 C.ar    1  UNL1        0.1016
     12 N         142.6207  138.8542  160.3140 N.ar    1  UNL1       -0.2285
     13 N         142.1376  138.6905  161.7246 N.ar    1  UNL1       -0.1695
     14 C         141.9455  138.3246  159.0837 C.ar    1  UNL1        0.0830
     15 C         142.7189  137.4954  158.1017 C.ar    1  UNL1        0.0215
     16 C         142.0437  136.9658  156.8715 C.ar    1  UNL1        0.0312
     17 C         140.5949  137.2653  156.6232 C.ar    1  UNL1        0.1402
     18 F         139.9197  136.7356  155.3930 F       1  UNL1       -0.2042
     19 C         139.8215  138.0944  157.6051 C.ar    1  UNL1        0.0312
     20 C         140.4968  138.6241  158.8354 C.ar    1  UNL1        0.0215
     21 O         142.3189  141.0349  169.8729 O.3     1  UNL1       -0.4267
     22 C         140.8780  141.4489  169.9226 C.3     1  UNL1        0.2933
     23 C         140.5108  142.9000  169.8258 C.3     1  UNL1        0.4368
     24 F         140.1437  144.3511  169.7290 F       1  UNL1       -0.1663
     25 F         139.2296  142.6245  170.5554 F       1  UNL1       -0.1663
     26 F         141.7922  143.1755  169.0962 F       1  UNL1       -0.1663
     27 C         139.8043  140.4117  170.0691 C.3     1  UNL1        0.1901
     28 O         139.7779  139.5253  171.2789 O.3     1  UNL1       -0.3783
     29 H         140.5594  138.9506  171.2758 H       1  UNL1        0.2106
@<TRIPOS>BOND
     1     1     2    2
     2     2    21    1
     3    21    22    1
     4    22    27    1
     5    27    28    1
     6    22    23    1
     7    23    24    1
     8    23    25    1
     9    23    26    1
    10     2     3   am
    11     3     4    1
    12     5     4    1
    13     5     6    1
    14     6     7    1
    15     6     8    1
    16     8     9    1
    17     9    10   ar
    18    10    11   ar
    19    11    12   ar
    20    12    14    1
    21    14    15   ar
    22    15    16   ar
    23    16    17   ar
    24    17    18    1
    25    17    19   ar
    26    19    20   ar
    27    12    13   ar
    28     7     3    1
    29    13     9   ar
    30     8     5    1
    31    20    14   ar
    32    28    29    1
@<TRIPOS>MOLECULE
*****
 29 32 0 0 0
SMALL
GASTEIGER

@<TRIPOS>ATOM
      1 O         138.6826  140.0897  170.4567 O.2     1  UNL1       -0.2262
      2 C         139.9274  140.1943  169.6263 C.2     1  UNL1        0.4051
      3 N         139.8780  139.8876  168.1589 N.am    1  UNL1       -0.2460
      4 C         138.6631  139.4663  167.3866 C.3     1  UNL1        0.0971
      5 C         139.0691  139.2666  165.9564 C.3     1  UNL1        0.0276
      6 C         140.5350  139.5645  165.8448 C.3     1  UNL1        0.0276
      7 C         141.0349  139.9483  167.2060 C.3     1  UNL1        0.0971
      8 C         139.7593  139.1499  164.6298 C.3     1  UNL1        0.0455
      9 C         139.7099  138.8432  163.1623 C.ar    1  UNL1        0.0802
     10 C         138.5894  138.1524  162.4432 C.ar    1  UNL1        0.0371
     11 C         138.9594  138.0556  160.9927 C.ar    1  UNL1        0.1016
     12 N         140.3086  138.6867  160.8154 N.ar    1  UNL1       -0.2285
     13 N         140.7724  139.1734  162.1563 N.ar    1  UNL1       -0.1695
     14 C         141.0617  138.8094  159.5240 C.ar    1  UNL1        0.0830
     15 C         142.4642  139.3413  159.5214 C.ar    1  UNL1        0.0215
     16 C         143.2173  139.4641  158.2300 C.ar    1  UNL1        0.0312
     17 C         142.5678  139.0549  156.9412 C.ar    1  UNL1        0.1402
     18 F         143.3210  139.1777  155.6498 F       1  UNL1       -0.2042
     19 C         141.1654  138.5231  156.9438 C.ar    1  UNL1        0.0312
     20 C         140.4123  138.4003  158.2353 C.ar    1  UNL1        0.0215
     21 O         141.2215  140.6057  170.2634 O.3     1  UNL1       -0.4267
     22 C         141.6910  142.0264  170.1583 C.3     1  UNL1        0.2933
     23 C         143.1529  142.3236  170.0022 C.3     1  UNL1        0.4368
     24 F         144.6149  142.6208  169.8462 F       1  UNL1       -0.1663
     25 F         142.9545  143.6513  170.6715 F       1  UNL1       -0.1663
     26 F         143.3513  140.9959  169.3329 F       1  UNL1       -0.1663
     27 C         140.6985  143.1500  170.2091 C.3     1  UNL1        0.1901
     28 O         139.5873  143.1242  171.2165 O.3     1  UNL1       -0.3783
     29 H         138.9884  142.3873  171.0184 H       1  UNL1        0.2106
@<TRIPOS>BOND
     1     1     2    2
     2     2    21    1
     3    21    22    1
     4    22    27    1
     5    27    28    1
     6    22    23    1
     7    23    24    1
     8    23    25    1
     9    23    26    1
    10     2     3   am
    11     3     4    1
    12     5     4    1
    13     5     6    1
    14     6     7    1
    15     6     8    1
    16     8     9    1
    17     9    10   ar
    18    10    11   ar
    19    11    12   ar
    20    12    14    1
    21    14    15   ar
    22    15    16   ar
    23    16    17   ar
    24    17    18    1
    25    17    19   ar
    26    19    20   ar
    27    12    13   ar
    28     7     3    1
    29    13     9   ar
    30     8     5    1
    31    20    14   ar
    32    28    29    1
@<TRIPOS>MOLECULE
*****
 29 32 0 0 0
SMALL
GASTEIGER

@<TRIPOS>ATOM
      1 O         138.7057  139.9688  170.6358 O.2     1  UNL1       -0.2262
      2 C         139.8837  140.1652  169.7283 C.2     1  UNL1        0.4051
      3 N         139.7400  139.9369  168.2527 N.am    1  UNL1       -0.2460
      4 C         138.4880  139.5126  167.5440 C.3     1  UNL1        0.0971
      5 C         138.7973  139.4063  166.0801 C.3     1  UNL1        0.0276
      6 C         140.2405  139.7649  165.8841 C.3     1  UNL1        0.0276
      7 C         140.8232  140.0928  167.2268 C.3     1  UNL1        0.0971
      8 C         139.3945  139.3879  164.7042 C.3     1  UNL1        0.0455
      9 C         139.2508  139.1596  163.2287 C.ar    1  UNL1        0.0802
     10 C         139.2117  137.8264  162.5424 C.ar    1  UNL1        0.0371
     11 C         139.0577  138.0673  161.0699 C.ar    1  UNL1        0.1016
     12 N         139.0016  139.5494  160.8461 N.ar    1  UNL1       -0.2285
     13 N         139.1209  140.2245  162.1803 N.ar    1  UNL1       -0.1695
     14 C         138.8524  140.2360  159.5208 C.ar    1  UNL1        0.0830
     15 C         139.1547  139.4933  158.2531 C.ar    1  UNL1        0.0215
     16 C         139.0055  140.1798  156.9279 C.ar    1  UNL1        0.0312
     17 C         138.5539  141.6091  156.8703 C.ar    1  UNL1        0.1402
     18 F         138.4047  142.2957  155.5450 F       1  UNL1       -0.2042
     19 C         138.2516  142.3518  158.1379 C.ar    1  UNL1        0.0312
     20 C         138.4008  141.6652  159.4632 C.ar    1  UNL1        0.0215
     21 O         141.2054  140.5898  170.2963 O.3     1  UNL1       -0.4267
     22 C         141.6556  142.0146  170.1642 C.3     1  UNL1        0.2933
     23 C         143.1133  142.3285  170.0016 C.3     1  UNL1        0.4368
     24 F         144.5710  142.6424  169.8390 F       1  UNL1       -0.1663
     25 F         142.9062  143.6458  170.6884 F       1  UNL1       -0.1663
     26 F         143.3204  141.0111  169.3148 F       1  UNL1       -0.1663
     27 C         140.6480  143.1254  170.1947 C.3     1  UNL1        0.1901
     28 O         139.5416  143.1067  171.2074 O.3     1  UNL1       -0.3783
     29 H         138.9520  142.3576  171.0283 H       1  UNL1        0.2106
@<TRIPOS>BOND
     1     1     2    2
     2     2    21    1
     3    21    22    1
     4    22    27    1
     5    27    28    1
     6    22    23    1
     7    23    24    1
     8    23    25    1
     9    23    26    1
    10     2     3   am
    11     3     4    1
    12     5     4    1
    13     5     6    1
    14     6     7    1
    15     6     8    1
    16     8     9    1
    17     9    10   ar
    18    10    11   ar
    19    11    12   ar
    20    12    14    1
    21    14    15   ar
    22    15    16   ar
    23    16    17   ar
    24    17    18    1
    25    17    19   ar
    26    19    20   ar
    27    12    13   ar
    28     7     3    1
    29    13     9   ar
    30     8     5    1
    31    20    14   ar
    32    28    29    1
@<TRIPOS>MOLECULE
*****
 29 32 0 0 0
SMALL
GASTEIGER

@<TRIPOS>ATOM
      1 O         138.5388  139.3199  168.6637 O.2     1  UNL1       -0.2262
      2 C         139.5270  140.0760  167.8262 C.2     1  UNL1        0.4051
      3 N         139.2943  140.2362  166.3530 N.am    1  UNL1       -0.2460
      4 C         138.1255  139.6990  165.5815 C.3     1  UNL1        0.0971
      5 C         138.2983  140.0926  164.1444 C.3     1  UNL1        0.0276
      6 C         139.5739  140.8731  164.0277 C.3     1  UNL1        0.0276
      7 C         140.1894  140.9619  165.3928 C.3     1  UNL1        0.0971
      8 C         138.7346  140.6216  162.8103 C.3     1  UNL1        0.0455
      9 C         138.5018  140.7819  161.3372 C.ar    1  UNL1        0.0802
     10 C         137.9836  139.7259  160.4064 C.ar    1  UNL1        0.0371
     11 C         137.9079  140.3176  159.0301 C.ar    1  UNL1        0.1016
     12 N         138.3794  141.7394  159.1103 N.ar    1  UNL1       -0.2285
     13 N         138.7464  142.0263  160.5361 N.ar    1  UNL1       -0.1695
     14 C         138.4682  142.7047  157.9656 C.ar    1  UNL1        0.0830
     15 C         139.6033  143.6828  157.8958 C.ar    1  UNL1        0.0215
     16 C         139.6921  144.6481  156.7511 C.ar    1  UNL1        0.0312
     17 C         138.6458  144.6353  155.6763 C.ar    1  UNL1        0.1402
     18 F         138.7346  145.6006  154.5316 F       1  UNL1       -0.2042
     19 C         137.5108  143.6572  155.7461 C.ar    1  UNL1        0.0312
     20 C         137.4220  142.6919  156.8909 C.ar    1  UNL1        0.0215
     21 O         140.7481  140.6718  168.4617 O.3     1  UNL1       -0.4267
     22 C         140.6253  141.4500  169.7382 C.3     1  UNL1        0.2933
     23 C         140.4139  142.9343  169.6944 C.3     1  UNL1        0.4368
     24 F         140.2025  144.4187  169.6505 F       1  UNL1       -0.1663
     25 F         139.5403  142.8458  170.9105 F       1  UNL1       -0.1663
     26 F         141.2875  143.0228  168.4782 F       1  UNL1       -0.1663
     27 C         140.7139  140.7437  171.0586 C.3     1  UNL1        0.1901
     28 O         139.8382  139.5575  171.3349 O.3     1  UNL1       -0.3783
     29 H         138.9107  139.8401  171.3639 H       1  UNL1        0.2106
@<TRIPOS>BOND
     1     1     2    2
     2     2    21    1
     3    21    22    1
     4    22    27    1
     5    27    28    1
     6    22    23    1
     7    23    24    1
     8    23    25    1
     9    23    26    1
    10     2     3   am
    11     3     4    1
    12     5     4    1
    13     5     6    1
    14     6     7    1
    15     6     8    1
    16     8     9    1
    17     9    10   ar
    18    10    11   ar
    19    11    12   ar
    20    12    14    1
    21    14    15   ar
    22    15    16   ar
    23    16    17   ar
    24    17    18    1
    25    17    19   ar
    26    19    20   ar
    27    12    13   ar
    28     7     3    1
    29    13     9   ar
    30     8     5    1
    31    20    14   ar
    32    28    29    1
@<TRIPOS>MOLECULE
*****
 29 32 0 0 0
SMALL
GASTEIGER

@<TRIPOS>ATOM
      1 O         138.5226  139.5168  168.7763 O.2     1  UNL1       -0.2262
      2 C         139.6713  139.9969  167.9397 C.2     1  UNL1        0.4051
      3 N         139.6219  139.8572  166.4470 N.am    1  UNL1       -0.2460
      4 C         138.4967  139.2613  165.6540 C.3     1  UNL1        0.0971
      5 C         138.8684  139.3247  164.2021 C.3     1  UNL1        0.0276
      6 C         140.2233  139.9597  164.0978 C.3     1  UNL1        0.0276
      7 C         140.6890  140.2888  165.4853 C.3     1  UNL1        0.0971
      8 C         139.5031  139.5212  162.8573 C.3     1  UNL1        0.0455
      9 C         139.4537  139.3815  161.3647 C.ar    1  UNL1        0.0802
     10 C         138.4557  140.0289  160.4511 C.ar    1  UNL1        0.0371
     11 C         138.7788  139.6174  159.0453 C.ar    1  UNL1        0.1016
     12 N         139.9766  138.7156  159.0900 N.ar    1  UNL1       -0.2285
     13 N         140.3937  138.5699  160.5235 N.ar    1  UNL1       -0.1695
     14 C         140.6408  138.0726  157.9088 C.ar    1  UNL1        0.0830
     15 C         142.1344  137.9403  157.8682 C.ar    1  UNL1        0.0215
     16 C         142.7984  137.2972  156.6869 C.ar    1  UNL1        0.0312
     17 C         141.9689  136.7864  155.5462 C.ar    1  UNL1        0.1402
     18 F         142.6331  136.1433  154.3650 F       1  UNL1       -0.2042
     19 C         140.4754  136.9186  155.5869 C.ar    1  UNL1        0.0312
     20 C         139.8113  137.5618  156.7682 C.ar    1  UNL1        0.0215
     21 O         140.8693  140.6167  168.5957 O.3     1  UNL1       -0.4267
     22 C         140.7131  141.3720  169.8822 C.3     1  UNL1        0.2933
     23 C         140.4929  142.8555  169.8590 C.3     1  UNL1        0.4368
     24 F         140.2727  144.3390  169.8359 F       1  UNL1       -0.1663
     25 F         139.1551  142.6671  170.5108 F       1  UNL1       -0.1663
     26 F         141.8308  143.0438  169.2073 F       1  UNL1       -0.1663
     27 C         140.7771  140.6436  171.1920 C.3     1  UNL1        0.1901
     28 O         139.8608  139.4846  171.4512 O.3     1  UNL1       -0.3783
     29 H         138.9437  139.7987  171.4848 H       1  UNL1        0.2106
@<TRIPOS>BOND
     1     1     2    2
     2     2    21    1
     3    21    22    1
     4    22    27    1
     5    27    28    1
     6    22    23    1
     7    23    24    1
     8    23    25    1
     9    23    26    1
    10     2     3   am
    11     3     4    1
    12     5     4    1
    13     5     6    1
    14     6     7    1
    15     6     8    1
    16     8     9    1
    17     9    10   ar
    18    10    11   ar
    19    11    12   ar
    20    12    14    1
    21    14    15   ar
    22    15    16   ar
    23    16    17   ar
    24    17    18    1
    25    17    19   ar
    26    19    20   ar
    27    12    13   ar
    28     7     3    1
    29    13     9   ar
    30     8     5    1
    31    20    14   ar
    32    28    29    1
@<TRIPOS>MOLECULE
*****
 29 32 0 0 0
SMALL
GASTEIGER

@<TRIPOS>ATOM
      1 O         142.8005  138.8099  169.1870 O.2     1  UNL1       -0.2262
      2 C         142.8198  140.2726  168.8555 C.2     1  UNL1        0.4051
      3 N         142.9396  140.7166  167.4277 N.am    1  UNL1       -0.2460
      4 C         143.0480  139.8185  166.2312 C.3     1  UNL1        0.0971
      5 C         143.1475  140.6834  165.0098 C.3     1  UNL1        0.0276
      6 C         143.1005  142.1162  165.4514 C.3     1  UNL1        0.0276
      7 C         142.9720  142.1367  166.9457 C.3     1  UNL1        0.0971
      8 C         143.2278  141.7843  163.9941 C.3     1  UNL1        0.0455
      9 C         143.3477  142.2282  162.5663 C.ar    1  UNL1        0.0802
     10 C         144.4687  141.8898  161.6289 C.ar    1  UNL1        0.0371
     11 C         144.1814  142.5410  160.3085 C.ar    1  UNL1        0.1016
     12 N         142.8828  143.2819  160.4299 N.ar    1  UNL1       -0.2285
     13 N         142.3675  143.0886  161.8253 N.ar    1  UNL1       -0.1695
     14 C         142.2164  144.0766  159.3462 C.ar    1  UNL1        0.0830
     15 C         142.7745  144.0616  157.9539 C.ar    1  UNL1        0.0215
     16 C         142.1081  144.8562  156.8703 C.ar    1  UNL1        0.0312
     17 C         140.8836  145.6659  157.1788 C.ar    1  UNL1        0.1402
     18 F         140.2172  146.4606  156.0951 F       1  UNL1       -0.2042
     19 C         140.3256  145.6809  158.5710 C.ar    1  UNL1        0.0312
     20 C         140.9920  144.8862  159.6547 C.ar    1  UNL1        0.0215
     21 O         142.7192  141.2914  169.9518 O.3     1  UNL1       -0.4267
     22 C         141.3735  141.7099  170.4655 C.3     1  UNL1        0.2933
     23 C         140.8115  143.0495  170.0919 C.3     1  UNL1        0.4368
     24 F         140.2495  144.3891  169.7183 F       1  UNL1       -0.1663
     25 F         139.4231  142.4858  170.1592 F       1  UNL1       -0.1663
     26 F         142.2000  143.6132  170.0246 F       1  UNL1       -0.1663
     27 C         140.5898  140.7888  171.3529 C.3     1  UNL1        0.1901
     28 O         140.2505  139.4048  170.8845 O.3     1  UNL1       -0.3783
     29 H         139.6434  139.4586  170.1298 H       1  UNL1        0.2106
@<TRIPOS>BOND
     1     1     2    2
     2     2    21    1
     3    21    22    1
     4    22    27    1
     5    27    28    1
     6    22    23    1
     7    23    24    1
     8    23    25    1
     9    23    26    1
    10     2     3   am
    11     3     4    1
    12     5     4    1
    13     5     6    1
    14     6     7    1
    15     6     8    1
    16     8     9    1
    17     9    10   ar
    18    10    11   ar
    19    11    12   ar
    20    12    14    1
    21    14    15   ar
    22    15    16   ar
    23    16    17   ar
    24    17    18    1
    25    17    19   ar
    26    19    20   ar
    27    12    13   ar
    28     7     3    1
    29    13     9   ar
    30     8     5    1
    31    20    14   ar
    32    28    29    1
@<TRIPOS>MOLECULE
*****
 29 32 0 0 0
SMALL
GASTEIGER

@<TRIPOS>ATOM
      1 O         143.3294  138.9135  167.4997 O.2     1  UNL1       -0.2262
      2 C         142.2558  139.9536  167.6239 C.2     1  UNL1        0.4051
      3 N         141.9611  140.8686  166.4724 N.am    1  UNL1       -0.2460
      4 C         142.6532  140.8621  165.1416 C.3     1  UNL1        0.0971
      5 C         142.0425  141.9401  164.2961 C.3     1  UNL1        0.0276
      6 C         140.9729  142.6130  165.1044 C.3     1  UNL1        0.0276
      7 C         140.9226  141.9507  166.4494 C.3     1  UNL1        0.0971
      8 C         141.2525  143.0689  163.7030 C.3     1  UNL1        0.0455
      9 C         140.9579  143.9838  162.5515 C.ar    1  UNL1        0.0802
     10 C         140.1692  145.2581  162.6172 C.ar    1  UNL1        0.0371
     11 C         140.1241  145.8469  161.2384 C.ar    1  UNL1        0.1016
     12 N         140.8848  144.9366  160.3204 N.ar    1  UNL1       -0.2285
     13 N         141.4001  143.7852  161.1320 N.ar    1  UNL1       -0.1695
     14 C         141.0935  145.1417  158.8493 C.ar    1  UNL1        0.0830
     15 C         140.1782  146.0483  158.0810 C.ar    1  UNL1        0.0215
     16 C         140.3870  146.2534  156.6099 C.ar    1  UNL1        0.0312
     17 C         141.5112  145.5518  155.9069 C.ar    1  UNL1        0.1402
     18 F         141.7200  145.7569  154.4358 F       1  UNL1       -0.2042
     19 C         142.4265  144.6452  156.6751 C.ar    1  UNL1        0.0312
     20 C         142.2177  144.4402  158.1463 C.ar    1  UNL1        0.0215
     21 O         141.4768  140.0788  168.8996 O.3     1  UNL1       -0.4267
     22 C         141.8530  141.1231  169.9086 C.3     1  UNL1        0.2933
     23 C         143.2022  141.7754  169.8456 C.3     1  UNL1        0.4368
     24 F         144.5514  142.4277  169.7825 F       1  UNL1       -0.1663
     25 F         143.8093  140.5856  170.5280 F       1  UNL1       -0.1663
     26 F         142.5950  142.9652  169.1631 F       1  UNL1       -0.1663
     27 C         140.8797  141.5150  170.9807 C.3     1  UNL1        0.1901
     28 O         140.7048  140.6444  172.1896 O.3     1  UNL1       -0.3783
     29 H         140.3196  139.7949  171.9233 H       1  UNL1        0.2106
@<TRIPOS>BOND
     1     1     2    2
     2     2    21    1
     3    21    22    1
     4    22    27    1
     5    27    28    1
     6    22    23    1
     7    23    24    1
     8    23    25    1
     9    23    26    1
    10     2     3   am
    11     3     4    1
    12     5     4    1
    13     5     6    1
    14     6     7    1
    15     6     8    1
    16     8     9    1
    17     9    10   ar
    18    10    11   ar
    19    11    12   ar
    20    12    14    1
    21    14    15   ar
    22    15    16   ar
    23    16    17   ar
    24    17    18    1
    25    17    19   ar
    26    19    20   ar
    27    12    13   ar
    28     7     3    1
    29    13     9   ar
    30     8     5    1
    31    20    14   ar
    32    28    29    1
@<TRIPOS>MOLECULE
*****
 29 32 0 0 0
SMALL
GASTEIGER

@<TRIPOS>ATOM
      1 O         143.0278  144.7545  162.4447 O.2     1  UNL1       -0.2262
      2 C         142.0494  143.6189  162.3908 C.2     1  UNL1        0.4051
      3 N         142.2159  142.5332  161.3692 N.am    1  UNL1       -0.2460
      4 C         143.3057  142.4489  160.3419 C.3     1  UNL1        0.0971
      5 C         143.0853  141.2049  159.5333 C.3     1  UNL1        0.0276
      6 C         141.8593  140.5203  160.0608 C.3     1  UNL1        0.0276
      7 C         141.3220  141.3413  161.1955 C.3     1  UNL1        0.0971
      8 C         142.6165  139.9224  158.9124 C.3     1  UNL1        0.0455
      9 C         142.7831  138.8368  157.8908 C.ar    1  UNL1        0.0802
     10 C         143.2722  139.0171  156.4843 C.ar    1  UNL1        0.0371
     11 C         143.2812  137.6720  155.8205 C.ar    1  UNL1        0.1016
     12 N         142.7977  136.6603  156.8168 N.ar    1  UNL1       -0.2285
     13 N         142.4898  137.3802  158.0963 N.ar    1  UNL1       -0.1695
     14 C         142.6482  135.1873  156.5760 C.ar    1  UNL1        0.0830
     15 C         143.4893  134.2124  157.3455 C.ar    1  UNL1        0.0215
     16 C         143.3398  132.7395  157.1046 C.ar    1  UNL1        0.0312
     17 C         142.3492  132.2414  156.0942 C.ar    1  UNL1        0.1402
     18 F         142.1997  130.7684  155.8534 F       1  UNL1       -0.2042
     19 C         141.5082  133.2163  155.3248 C.ar    1  UNL1        0.0312
     20 C         141.6577  134.6893  155.5657 C.ar    1  UNL1        0.0215
     21 O         140.9043  143.5689  163.3584 O.3     1  UNL1       -0.4267
     22 C         139.7051  144.4448  163.1472 C.3     1  UNL1        0.2933
     23 C         138.5158  144.3192  164.0526 C.3     1  UNL1        0.4368
     24 F         137.3265  144.1935  164.9580 F       1  UNL1       -0.1663
     25 F         139.1988  145.1844  165.0699 F       1  UNL1       -0.1663
     26 F         137.8328  143.4539  163.0352 F       1  UNL1       -0.1663
     27 C         139.6952  145.4464  162.0306 C.3     1  UNL1        0.1901
     28 O         140.4337  146.7435  162.1801 O.3     1  UNL1       -0.3783
     29 H         140.0178  147.2739  162.8776 H       1  UNL1        0.2106
@<TRIPOS>BOND
     1     1     2    2
     2     2    21    1
     3    21    22    1
     4    22    27    1
     5    27    28    1
     6    22    23    1
     7    23    24    1
     8    23    25    1
     9    23    26    1
    10     2     3   am
    11     3     4    1
    12     5     4    1
    13     5     6    1
    14     6     7    1
    15     6     8    1
    16     8     9    1
    17     9    10   ar
    18    10    11   ar
    19    11    12   ar
    20    12    14    1
    21    14    15   ar
    22    15    16   ar
    23    16    17   ar
    24    17    18    1
    25    17    19   ar
    26    19    20   ar
    27    12    13   ar
    28     7     3    1
    29    13     9   ar
    30     8     5    1
    31    20    14   ar
    32    28    29    1
