@<TRIPOS>MOLECULE
*****
 30 34 0 0 0
SMALL
GASTEIGER

@<TRIPOS>ATOM
      1 C         138.5013  138.8076  165.4147 C.ar    1  UNL1        0.0924
      2 C         138.9147  137.5648  164.6836 C.ar    1  UNL1        0.1265
      3 N         138.9929  137.8915  163.2217 N.ar    1  UNL1       -0.1625
      4 N         138.6278  139.3361  163.0494 N.ar    1  UNL1       -0.2199
      5 C         138.3239  139.9024  164.4048 C.ar    1  UNL1        0.1311
      6 N         137.9146  141.3152  164.6986 N.pl3   1  UNL1       -0.3425
      7 H         137.8247  141.9645  163.9641 H       1  UNL1        0.1437
      8 H         137.7358  141.5932  165.6260 H       1  UNL1        0.1437
      9 C         138.5757  140.0835  161.7499 C.2     1  UNL1        0.0704
     10 C         137.7166  139.5789  160.6284 C.2     1  UNL1        0.0192
     11 C         137.6645  140.3263  159.3289 C.2     1  UNL1        0.0514
     12 C         138.4714  141.5782  159.1507 C.2     1  UNL1        0.2318
     13 N         138.6204  142.5200  157.9929 N.2     1  UNL1       -0.0350
     14 C         139.5715  143.6066  158.3986 C.2     1  UNL1        0.3518
     15 C         140.0073  144.7609  157.5455 C.3     1  UNL1        0.1367
     16 N         140.0104  143.3364  159.8074 N.2     1  UNL1       -0.0388
     17 C         139.3305  142.0827  160.2722 C.2     1  UNL1        0.2190
     18 C         139.3826  141.3354  161.5717 C.3     1  UNL1        0.1235
     19 C         138.3004  138.9334  166.8959 C.2     1  UNL1        0.2173
     20 O         137.1003  138.3109  167.5456 O.2     1  UNL1       -0.2848
     21 C         144.4241  142.7043  170.0431 C.3     1  UNL1        0.0268
     22 C         143.0634  142.0932  169.8850 C.2     1  UNL1       -0.0380
     23 C         142.0728  142.1673  171.0088 C.2     1  UNL1       -0.0081
     24 C         140.7121  141.5561  170.8507 C.2     1  UNL1        0.0006
     25 C         140.3420  140.8709  169.5688 C.2     1  UNL1        0.0155
     26 C         139.0856  140.1819  169.1253 C.2     1  UNL1        0.0235
     27 C         139.2997  139.6820  167.7273 C.2     1  UNL1        0.1199
     28 N         140.6885  140.0619  167.3068 N.2     1  UNL1       -0.2461
     29 C         141.3327  140.7967  168.4449 C.2     1  UNL1        0.0631
     30 C         142.6934  141.4079  168.6030 C.3     1  UNL1        0.0678
@<TRIPOS>BOND
     1    21    22    1
     2    22    23    2
     3    23    24    1
     4    24    25    2
     5    25    26    1
     6    26    27    2
     7    27    19    1
     8    19    20    2
     9    19     1    1
    10     1     2   ar
    11     2     3   ar
    12     3     4   ar
    13     4     9    1
    14     9    10    2
    15    10    11    1
    16    11    12    2
    17    12    13    1
    18    13    14    2
    19    14    15    1
    20    14    16    1
    21    16    17    2
    22    17    18    1
    23     4     5   ar
    24     5     6    1
    25    27    28    1
    26    28    29    2
    27    29    30    1
    28    30    22    1
    29    29    25    1
    30     5     1   ar
    31    18     9    1
    32    17    12    1
    33     6     7    1
    34     6     8    1
@<TRIPOS>MOLECULE
*****
 30 34 0 0 0
SMALL
GASTEIGER

@<TRIPOS>ATOM
      1 C         139.3159  143.9143  157.0658 C.ar    1  UNL1        0.0924
      2 C         138.2543  143.6863  156.0310 C.ar    1  UNL1        0.1265
      3 N         138.1138  144.9443  155.2261 N.ar    1  UNL1       -0.1625
      4 N         139.0886  145.9497  155.7636 N.ar    1  UNL1       -0.2199
      5 C         139.8316  145.3132  156.9006 C.ar    1  UNL1        0.1311
      6 N         140.9022  145.9616  157.7273 N.pl3   1  UNL1       -0.3425
      7 H         141.1737  146.8895  157.5411 H       1  UNL1        0.1437
      8 H         141.3334  145.4594  158.4561 H       1  UNL1        0.1437
      9 C         139.2859  147.3465  155.2536 C.2     1  UNL1        0.0704
     10 C         140.2185  147.6015  154.1067 C.2     1  UNL1        0.0192
     11 C         140.4157  148.9983  153.5967 C.2     1  UNL1        0.0514
     12 C         139.6804  150.1401  154.2336 C.2     1  UNL1        0.2318
     13 N         139.6732  151.6128  153.9489 N.2     1  UNL1       -0.0350
     14 C         138.7361  152.2680  154.9198 C.2     1  UNL1        0.3518
     15 C         138.4255  153.7337  154.9931 C.3     1  UNL1        0.1367
     16 N         138.1642  151.2002  155.8046 N.2     1  UNL1       -0.0388
     17 C         138.7479  149.8851  155.3805 C.2     1  UNL1        0.2190
     18 C         138.5506  148.4883  155.8905 C.3     1  UNL1        0.1235
     19 C         139.7803  142.9183  158.0867 C.2     1  UNL1        0.2173
     20 O         140.6511  141.7696  157.6719 O.2     1  UNL1       -0.2848
     21 C         138.4640  144.9863  165.5443 C.3     1  UNL1        0.0268
     22 C         138.4302  144.2123  164.2599 C.2     1  UNL1       -0.0380
     23 C         137.6585  142.9287  164.1779 C.2     1  UNL1       -0.0081
     24 C         137.6246  142.1546  162.8935 C.2     1  UNL1        0.0006
     25 C         138.3625  142.6641  161.6911 C.2     1  UNL1        0.0155
     26 C         138.5106  142.1223  160.3002 C.2     1  UNL1        0.0235
     27 C         139.3738  143.0710  159.5226 C.2     1  UNL1        0.1199
     28 N         139.7592  144.1993  160.4328 N.2     1  UNL1       -0.2461
     29 C         139.1342  143.9478  161.7730 C.2     1  UNL1        0.0631
     30 C         139.1680  144.7218  163.0574 C.3     1  UNL1        0.0678
@<TRIPOS>BOND
     1    21    22    1
     2    22    23    2
     3    23    24    1
     4    24    25    2
     5    25    26    1
     6    26    27    2
     7    27    19    1
     8    19    20    2
     9    19     1    1
    10     1     2   ar
    11     2     3   ar
    12     3     4   ar
    13     4     9    1
    14     9    10    2
    15    10    11    1
    16    11    12    2
    17    12    13    1
    18    13    14    2
    19    14    15    1
    20    14    16    1
    21    16    17    2
    22    17    18    1
    23     4     5   ar
    24     5     6    1
    25    27    28    1
    26    28    29    2
    27    29    30    1
    28    30    22    1
    29    29    25    1
    30     5     1   ar
    31    18     9    1
    32    17    12    1
    33     6     7    1
    34     6     8    1
@<TRIPOS>MOLECULE
*****
 30 34 0 0 0
SMALL
GASTEIGER

@<TRIPOS>ATOM
      1 C         140.8629  143.7178  161.7694 C.ar    1  UNL1        0.0924
      2 C         142.0662  143.5988  160.8819 C.ar    1  UNL1        0.1265
      3 N         141.5878  143.3269  159.4865 N.ar    1  UNL1       -0.1625
      4 N         140.0888  143.2779  159.5116 N.ar    1  UNL1       -0.2199
      5 C         139.6407  143.5195  160.9227 C.ar    1  UNL1        0.1311
      6 N         138.2200  143.5563  161.4025 N.pl3   1  UNL1       -0.3425
      7 H         137.4819  143.4138  160.7668 H       1  UNL1        0.1437
      8 H         138.0257  143.7229  162.3532 H       1  UNL1        0.1437
      9 C         139.1948  143.0308  158.3328 C.2     1  UNL1        0.0704
     10 C         139.2607  143.9361  157.1386 C.2     1  UNL1        0.0192
     11 C         138.3666  143.6889  155.9598 C.2     1  UNL1        0.0514
     12 C         137.4067  142.5364  155.9752 C.2     1  UNL1        0.2318
     13 N         136.4090  142.0477  154.9673 N.2     1  UNL1       -0.0350
     14 C         135.7265  140.8403  155.5386 C.2     1  UNL1        0.3518
     15 C         134.6561  140.0322  154.8669 C.3     1  UNL1        0.1367
     16 N         136.3023  140.5828  156.8996 N.2     1  UNL1       -0.0388
     17 C         137.3407  141.6311  157.1694 C.2     1  UNL1        0.2190
     18 C         138.2348  141.8783  158.3482 C.3     1  UNL1        0.1235
     19 C         140.8789  143.9876  163.2449 C.2     1  UNL1        0.2173
     20 O         141.3890  145.3001  163.7618 O.2     1  UNL1       -0.2848
     21 C         137.4367  138.0824  167.1054 C.3     1  UNL1        0.0268
     22 C         138.3165  139.2601  166.8070 C.2     1  UNL1       -0.0380
     23 C         139.2203  139.8096  167.8706 C.2     1  UNL1       -0.0081
     24 C         140.1002  140.9872  167.5722 C.2     1  UNL1        0.0006
     25 C         140.0762  141.6154  166.2103 C.2     1  UNL1        0.0155
     26 C         140.8254  142.7767  165.6273 C.2     1  UNL1        0.0235
     27 C         140.3847  142.9450  164.2034 C.2     1  UNL1        0.1199
     28 N         139.3631  141.8877  163.9064 N.2     1  UNL1       -0.2461
     29 C         139.1724  141.0659  165.1468 C.2     1  UNL1        0.0631
     30 C         138.2926  139.8882  165.4451 C.3     1  UNL1        0.0678
@<TRIPOS>BOND
     1    21    22    1
     2    22    23    2
     3    23    24    1
     4    24    25    2
     5    25    26    1
     6    26    27    2
     7    27    19    1
     8    19    20    2
     9    19     1    1
    10     1     2   ar
    11     2     3   ar
    12     3     4   ar
    13     4     9    1
    14     9    10    2
    15    10    11    1
    16    11    12    2
    17    12    13    1
    18    13    14    2
    19    14    15    1
    20    14    16    1
    21    16    17    2
    22    17    18    1
    23     4     5   ar
    24     5     6    1
    25    27    28    1
    26    28    29    2
    27    29    30    1
    28    30    22    1
    29    29    25    1
    30     5     1   ar
    31    18     9    1
    32    17    12    1
    33     6     7    1
    34     6     8    1
@<TRIPOS>MOLECULE
*****
 30 34 0 0 0
SMALL
GASTEIGER

@<TRIPOS>ATOM
      1 C         143.7381  138.8332  164.9875 C.ar    1  UNL1        0.0924
      2 C         144.8162  139.6318  164.3168 C.ar    1  UNL1        0.1265
      3 N         144.5012  139.6972  162.8517 N.ar    1  UNL1       -0.1625
      4 N         143.2284  138.9390  162.6169 N.ar    1  UNL1       -0.2199
      5 C         142.7567  138.4050  163.9370 C.ar    1  UNL1        0.1311
      6 N         141.5207  137.5865  164.1661 N.pl3   1  UNL1       -0.3425
      7 H         140.9361  137.3551  163.4086 H       1  UNL1        0.1437
      8 H         141.2941  137.2808  165.0741 H       1  UNL1        0.1437
      9 C         142.5469  138.7482  161.2944 C.2     1  UNL1        0.0704
     10 C         141.1697  139.3003  161.0738 C.2     1  UNL1        0.0192
     11 C         140.4882  139.1095  159.7511 C.2     1  UNL1        0.0514
     12 C         141.1838  138.3667  158.6492 C.2     1  UNL1        0.2318
     13 N         140.7660  138.0246  157.2498 N.2     1  UNL1       -0.0350
     14 C         141.8850  137.2612  156.6055 C.2     1  UNL1        0.3518
     15 C         141.8931  136.7221  155.2057 C.3     1  UNL1        0.1367
     16 N         142.9944  137.1313  157.6068 N.2     1  UNL1       -0.0388
     17 C         142.5610  137.8146  158.8699 C.2     1  UNL1        0.2190
     18 C         143.2425  138.0054  160.1924 C.3     1  UNL1        0.1235
     19 C         143.6557  138.5182  166.4517 C.2     1  UNL1        0.2173
     20 O         144.2624  137.2530  166.9819 O.2     1  UNL1       -0.2848
     21 C         140.0985  144.4440  170.1738 C.3     1  UNL1        0.0268
     22 C         140.7039  143.0986  169.9029 C.2     1  UNL1       -0.0380
     23 C         140.7212  142.0535  170.9787 C.2     1  UNL1       -0.0081
     24 C         141.3266  140.7081  170.7078 C.2     1  UNL1        0.0006
     25 C         141.9147  140.4079  169.3610 C.2     1  UNL1        0.0155
     26 C         142.5754  139.1813  168.8051 C.2     1  UNL1        0.0235
     27 C         142.9666  139.4683  167.3857 C.2     1  UNL1        0.1199
     28 N         142.5476  140.8723  167.0643 N.2     1  UNL1       -0.2461
     29 C         141.8975  141.4530  168.2852 C.2     1  UNL1        0.0631
     30 C         141.2921  142.7983  168.5561 C.3     1  UNL1        0.0678
@<TRIPOS>BOND
     1    21    22    1
     2    22    23    2
     3    23    24    1
     4    24    25    2
     5    25    26    1
     6    26    27    2
     7    27    19    1
     8    19    20    2
     9    19     1    1
    10     1     2   ar
    11     2     3   ar
    12     3     4   ar
    13     4     9    1
    14     9    10    2
    15    10    11    1
    16    11    12    2
    17    12    13    1
    18    13    14    2
    19    14    15    1
    20    14    16    1
    21    16    17    2
    22    17    18    1
    23     4     5   ar
    24     5     6    1
    25    27    28    1
    26    28    29    2
    27    29    30    1
    28    30    22    1
    29    29    25    1
    30     5     1   ar
    31    18     9    1
    32    17    12    1
    33     6     7    1
    34     6     8    1
@<TRIPOS>MOLECULE
*****
 30 34 0 0 0
SMALL
GASTEIGER

@<TRIPOS>ATOM
      1 C         141.3941  137.9927  157.7961 C.ar    1  UNL1        0.0924
      2 C         140.0994  138.4625  157.2021 C.ar    1  UNL1        0.1265
      3 N         139.2634  139.0361  158.3076 N.ar    1  UNL1       -0.1625
      4 N         140.0415  138.9207  159.5848 N.ar    1  UNL1       -0.2199
      5 C         141.3585  138.2759  159.2687 C.ar    1  UNL1        0.1311
      6 N         142.4482  137.9683  160.2525 N.pl3   1  UNL1       -0.3425
      7 H         142.3306  138.1933  161.2036 H       1  UNL1        0.1437
      8 H         143.2810  137.5413  159.9469 H       1  UNL1        0.1437
      9 C         139.5832  139.3711  160.9402 C.2     1  UNL1        0.0704
     10 C         139.3213  140.8254  161.1984 C.2     1  UNL1        0.0192
     11 C         138.8630  141.2758  162.5539 C.2     1  UNL1        0.0514
     12 C         138.6666  140.2719  163.6510 C.2     1  UNL1        0.2318
     13 N         138.2262  140.4174  165.0775 N.2     1  UNL1       -0.0350
     14 C         138.2158  139.0531  165.7009 C.2     1  UNL1        0.3518
     15 C         137.8378  138.7336  167.1169 C.3     1  UNL1        0.1367
     16 N         138.6499  138.0644  164.6596 N.2     1  UNL1       -0.0388
     17 C         138.9285  138.8177  163.3928 C.2     1  UNL1        0.2190
     18 C         139.3868  138.3673  162.0374 C.3     1  UNL1        0.1235
     19 C         142.5260  137.3522  157.0487 C.2     1  UNL1        0.2173
     20 O         143.7096  138.1738  156.6317 O.2     1  UNL1       -0.2848
     21 C         143.2822  129.5645  156.4133 C.3     1  UNL1        0.0268
     22 C         142.8158  130.9689  156.1684 C.2     1  UNL1       -0.0380
     23 C         141.7934  131.2453  155.1063 C.2     1  UNL1       -0.0081
     24 C         141.3270  132.6497  154.8614 C.2     1  UNL1        0.0006
     25 C         141.8831  133.7779  155.6786 C.2     1  UNL1        0.0155
     26 C         141.6165  135.2539  155.6647 C.2     1  UNL1        0.0235
     27 C         142.4742  135.8899  156.7182 C.2     1  UNL1        0.1199
     28 N         143.2709  134.8069  157.3833 N.2     1  UNL1       -0.2461
     29 C         142.9056  133.5016  156.7407 C.2     1  UNL1        0.0631
     30 C         143.3719  132.0971  156.9856 C.3     1  UNL1        0.0678
@<TRIPOS>BOND
     1    21    22    1
     2    22    23    2
     3    23    24    1
     4    24    25    2
     5    25    26    1
     6    26    27    2
     7    27    19    1
     8    19    20    2
     9    19     1    1
    10     1     2   ar
    11     2     3   ar
    12     3     4   ar
    13     4     9    1
    14     9    10    2
    15    10    11    1
    16    11    12    2
    17    12    13    1
    18    13    14    2
    19    14    15    1
    20    14    16    1
    21    16    17    2
    22    17    18    1
    23     4     5   ar
    24     5     6    1
    25    27    28    1
    26    28    29    2
    27    29    30    1
    28    30    22    1
    29    29    25    1
    30     5     1   ar
    31    18     9    1
    32    17    12    1
    33     6     7    1
    34     6     8    1
@<TRIPOS>MOLECULE
*****
 30 34 0 0 0
SMALL
GASTEIGER

@<TRIPOS>ATOM
      1 C         141.4536  137.4571  157.1159 C.ar    1  UNL1        0.0924
      2 C         140.2104  137.7084  156.3151 C.ar    1  UNL1        0.1265
      3 N         139.2488  138.4697  157.1787 N.ar    1  UNL1       -0.1625
      4 N         139.8977  138.6887  158.5133 N.ar    1  UNL1       -0.2199
      5 C         141.2604  138.0629  158.4745 C.ar    1  UNL1        0.1311
      6 N         142.2551  138.0460  159.5971 N.pl3   1  UNL1       -0.3425
      7 H         142.0350  138.4731  160.4564 H       1  UNL1        0.1437
      8 H         143.1282  137.6077  159.4746 H       1  UNL1        0.1437
      9 C         139.2906  139.4074  159.6815 C.2     1  UNL1        0.0704
     10 C         138.6549  138.6275  160.7940 C.2     1  UNL1        0.0192
     11 C         138.0477  139.3463  161.9623 C.2     1  UNL1        0.0514
     12 C         138.0763  140.8449  162.0181 C.2     1  UNL1        0.2318
     13 N         137.5622  141.8215  163.0340 N.2     1  UNL1       -0.0350
     14 C         137.8801  143.2050  162.5494 C.2     1  UNL1        0.3518
     15 C         137.5461  144.4852  163.2561 C.3     1  UNL1        0.1367
     16 N         138.5908  143.0835  161.2339 N.2     1  UNL1       -0.0388
     17 C         138.7120  141.6249  160.9056 C.2     1  UNL1        0.2190
     18 C         139.3191  140.9062  159.7374 C.3     1  UNL1        0.1235
     19 C         142.6755  136.7279  156.6415 C.2     1  UNL1        0.2173
     20 O         143.9195  137.4927  156.2988 O.2     1  UNL1       -0.2848
     21 C         143.6045  128.9430  157.0370 C.3     1  UNL1        0.0268
     22 C         143.1023  130.2919  156.6148 C.2     1  UNL1       -0.0380
     23 C         142.0596  130.4020  155.5421 C.2     1  UNL1       -0.0081
     24 C         141.5575  131.7510  155.1199 C.2     1  UNL1        0.0006
     25 C         142.0980  132.9898  155.7704 C.2     1  UNL1        0.0155
     26 C         141.7968  134.4447  155.5643 C.2     1  UNL1        0.0235
     27 C         142.6534  135.2338  156.5097 C.2     1  UNL1        0.1199
     28 N         143.4839  134.2666  157.3000 N.2     1  UNL1       -0.2461
     29 C         143.1406  132.8796  156.8431 C.2     1  UNL1        0.0631
     30 C         143.6428  131.5307  157.2653 C.3     1  UNL1        0.0678
@<TRIPOS>BOND
     1    21    22    1
     2    22    23    2
     3    23    24    1
     4    24    25    2
     5    25    26    1
     6    26    27    2
     7    27    19    1
     8    19    20    2
     9    19     1    1
    10     1     2   ar
    11     2     3   ar
    12     3     4   ar
    13     4     9    1
    14     9    10    2
    15    10    11    1
    16    11    12    2
    17    12    13    1
    18    13    14    2
    19    14    15    1
    20    14    16    1
    21    16    17    2
    22    17    18    1
    23     4     5   ar
    24     5     6    1
    25    27    28    1
    26    28    29    2
    27    29    30    1
    28    30    22    1
    29    29    25    1
    30     5     1   ar
    31    18     9    1
    32    17    12    1
    33     6     7    1
    34     6     8    1
@<TRIPOS>MOLECULE
*****
 30 34 0 0 0
SMALL
GASTEIGER

@<TRIPOS>ATOM
      1 C         138.9857  141.1301  161.2797 C.ar    1  UNL1        0.0924
      2 C         138.0045  142.1948  161.6716 C.ar    1  UNL1        0.1265
      3 N         137.8575  142.1629  163.1640 N.ar    1  UNL1       -0.1625
      4 N         138.7479  141.0786  163.6945 N.ar    1  UNL1       -0.2199
      5 C         139.4452  140.4402  162.5299 C.ar    1  UNL1        0.1311
      6 N         140.4292  139.3103  162.6027 N.pl3   1  UNL1       -0.3425
      7 H         140.6685  138.9215  163.4749 H       1  UNL1        0.1437
      8 H         140.8357  138.9577  161.7783 H       1  UNL1        0.1437
      9 C         138.9121  140.6991  165.1363 C.2     1  UNL1        0.0704
     10 C         138.2077  139.4911  165.6789 C.2     1  UNL1        0.0192
     11 C         138.3720  139.1116  167.1209 C.2     1  UNL1        0.0514
     12 C         139.2407  139.9402  168.0202 C.2     1  UNL1        0.2318
     13 N         139.5902  139.8135  169.4734 N.2     1  UNL1       -0.0350
     14 C         140.5107  140.9432  169.8289 C.2     1  UNL1        0.3518
     15 C         141.1072  141.2025  171.1806 C.3     1  UNL1        0.1367
     16 N         140.7301  141.7682  168.5954 N.2     1  UNL1       -0.0388
     17 C         139.9452  141.1482  167.4776 C.2     1  UNL1        0.2190
     18 C         139.7809  141.5277  166.0357 C.3     1  UNL1        0.1235
     19 C         139.4296  140.8113  159.8828 C.2     1  UNL1        0.2173
     20 O         140.7524  140.1435  159.6502 O.2     1  UNL1       -0.2848
     21 C         134.2519  141.2620  153.9997 C.3     1  UNL1        0.0268
     22 C         135.3443  141.6308  154.9591 C.2     1  UNL1       -0.0380
     23 C         136.0068  142.9730  154.8613 C.2     1  UNL1       -0.0081
     24 C         137.0993  143.3419  155.8207 C.2     1  UNL1        0.0006
     25 C         137.5293  142.3685  156.8779 C.2     1  UNL1        0.0155
     26 C         138.5699  142.4513  157.9550 C.2     1  UNL1        0.0235
     27 C         138.5506  141.1603  158.7185 C.2     1  UNL1        0.1199
     28 N         137.4980  140.2796  158.1133 N.2     1  UNL1       -0.2461
     29 C         136.8668  141.0264  156.9757 C.2     1  UNL1        0.0631
     30 C         135.7743  140.6575  156.0163 C.3     1  UNL1        0.0678
@<TRIPOS>BOND
     1    21    22    1
     2    22    23    2
     3    23    24    1
     4    24    25    2
     5    25    26    1
     6    26    27    2
     7    27    19    1
     8    19    20    2
     9    19     1    1
    10     1     2   ar
    11     2     3   ar
    12     3     4   ar
    13     4     9    1
    14     9    10    2
    15    10    11    1
    16    11    12    2
    17    12    13    1
    18    13    14    2
    19    14    15    1
    20    14    16    1
    21    16    17    2
    22    17    18    1
    23     4     5   ar
    24     5     6    1
    25    27    28    1
    26    28    29    2
    27    29    30    1
    28    30    22    1
    29    29    25    1
    30     5     1   ar
    31    18     9    1
    32    17    12    1
    33     6     7    1
    34     6     8    1
@<TRIPOS>MOLECULE
*****
 30 34 0 0 0
SMALL
GASTEIGER

@<TRIPOS>ATOM
      1 C         140.0484  138.8574  157.5482 C.ar    1  UNL1        0.0924
      2 C         141.4525  139.1283  158.0007 C.ar    1  UNL1        0.1265
      3 N         142.3255  138.0199  157.4916 N.ar    1  UNL1       -0.1625
      4 N         141.4609  137.0639  156.7245 N.ar    1  UNL1       -0.2199
      5 C         140.0534  137.5815  156.7594 C.ar    1  UNL1        0.1311
      6 N         138.8606  136.9365  156.1182 N.pl3   1  UNL1       -0.3425
      7 H         138.9653  136.0948  155.6184 H       1  UNL1        0.1437
      8 H         137.9729  137.3549  156.1972 H       1  UNL1        0.1437
      9 C         141.9225  135.8104  156.0422 C.2     1  UNL1        0.0704
     10 C         141.5719  135.5664  154.6042 C.2     1  UNL1        0.0192
     11 C         142.0335  134.3128  153.9219 C.2     1  UNL1        0.0514
     12 C         142.8458  133.3033  154.6775 C.2     1  UNL1        0.2318
     13 N         143.4370  131.9852  154.2734 N.2     1  UNL1       -0.0350
     14 C         144.1530  131.4146  155.4616 C.2     1  UNL1        0.3518
     15 C         144.8885  130.1080  155.5039 C.3     1  UNL1        0.1367
     16 N         144.0043  132.3800  156.6001 N.2     1  UNL1       -0.0388
     17 C         143.1965  133.5472  156.1154 C.2     1  UNL1        0.2190
     18 C         142.7348  134.8007  156.7978 C.3     1  UNL1        0.1235
     19 C         138.8495  139.7123  157.8342 C.2     1  UNL1        0.2173
     20 O         137.8773  140.0318  156.7376 O.2     1  UNL1       -0.2848
     21 C         137.7143  143.8625  164.4001 C.3     1  UNL1        0.0268
     22 C         137.8960  142.6988  163.4713 C.2     1  UNL1       -0.0380
     23 C         137.8667  141.2986  164.0085 C.2     1  UNL1       -0.0081
     24 C         138.0484  140.1349  163.0797 C.2     1  UNL1        0.0006
     25 C         138.2593  140.3714  161.6135 C.2     1  UNL1        0.0155
     26 C         138.4659  139.4296  160.4645 C.2     1  UNL1        0.0235
     27 C         138.6228  140.2477  159.2170 C.2     1  UNL1        0.1199
     28 N         138.5132  141.6951  159.5951 N.2     1  UNL1       -0.2461
     29 C         138.2886  141.7715  161.0763 C.2     1  UNL1        0.0631
     30 C         138.1069  142.9352  162.0052 C.3     1  UNL1        0.0678
@<TRIPOS>BOND
     1    21    22    1
     2    22    23    2
     3    23    24    1
     4    24    25    2
     5    25    26    1
     6    26    27    2
     7    27    19    1
     8    19    20    2
     9    19     1    1
    10     1     2   ar
    11     2     3   ar
    12     3     4   ar
    13     4     9    1
    14     9    10    2
    15    10    11    1
    16    11    12    2
    17    12    13    1
    18    13    14    2
    19    14    15    1
    20    14    16    1
    21    16    17    2
    22    17    18    1
    23     4     5   ar
    24     5     6    1
    25    27    28    1
    26    28    29    2
    27    29    30    1
    28    30    22    1
    29    29    25    1
    30     5     1   ar
    31    18     9    1
    32    17    12    1
    33     6     7    1
    34     6     8    1
@<TRIPOS>MOLECULE
*****
 30 34 0 0 0
SMALL
GASTEIGER

@<TRIPOS>ATOM
      1 C         138.7753  140.6309  163.5507 C.ar    1  UNL1        0.0924
      2 C         137.3704  141.0319  163.2111 C.ar    1  UNL1        0.1265
      3 N         137.4334  142.0766  162.1366 N.ar    1  UNL1       -0.1625
      4 N         138.8773  142.3213  161.8121 N.ar    1  UNL1       -0.2199
      5 C         139.7067  141.4278  162.6861 C.ar    1  UNL1        0.1311
      6 N         141.2045  141.3456  162.6940 N.pl3   1  UNL1       -0.3425
      7 H         141.7318  141.9125  162.0859 H       1  UNL1        0.1437
      8 H         141.6602  140.7248  163.3074 H       1  UNL1        0.1437
      9 C         139.4001  143.2894  160.7926 C.2     1  UNL1        0.0704
     10 C         140.0584  144.5624  161.2356 C.2     1  UNL1        0.0192
     11 C         140.5812  145.5306  160.2160 C.2     1  UNL1        0.0514
     12 C         140.4457  145.2258  158.7536 C.2     1  UNL1        0.2318
     13 N         140.8618  145.9833  157.5277 N.2     1  UNL1       -0.0350
     14 C         140.4607  145.1786  156.3271 C.2     1  UNL1        0.3518
     15 C         140.6843  145.5616  154.8941 C.3     1  UNL1        0.1367
     16 N         139.7967  143.9236  156.8110 N.2     1  UNL1       -0.0388
     17 C         139.7874  143.9528  158.3106 C.2     1  UNL1        0.2190
     18 C         139.2646  142.9846  159.3301 C.3     1  UNL1        0.1235
     19 C         139.1782  139.6120  164.5751 C.2     1  UNL1        0.2173
     20 O         138.8238  138.1681  164.3764 O.2     1  UNL1       -0.2848
     21 C         144.1044  142.4455  169.9905 C.3     1  UNL1        0.0268
     22 C         142.9305  141.7522  169.3651 C.2     1  UNL1       -0.0380
     23 C         141.8940  141.1018  170.2327 C.2     1  UNL1       -0.0081
     24 C         140.7201  140.4086  169.6073 C.2     1  UNL1        0.0006
     25 C         140.5825  140.3657  168.1143 C.2     1  UNL1        0.0155
     26 C         139.5421  139.7606  167.2191 C.2     1  UNL1        0.0235
     27 C         139.9355  140.0370  165.7982 C.2     1  UNL1        0.1199
     28 N         141.2190  140.8129  165.8152 N.2     1  UNL1       -0.2461
     29 C         141.6189  141.0161  167.2466 C.2     1  UNL1        0.0631
     30 C         142.7929  141.7094  167.8721 C.3     1  UNL1        0.0678
@<TRIPOS>BOND
     1    21    22    1
     2    22    23    2
     3    23    24    1
     4    24    25    2
     5    25    26    1
     6    26    27    2
     7    27    19    1
     8    19    20    2
     9    19     1    1
    10     1     2   ar
    11     2     3   ar
    12     3     4   ar
    13     4     9    1
    14     9    10    2
    15    10    11    1
    16    11    12    2
    17    12    13    1
    18    13    14    2
    19    14    15    1
    20    14    16    1
    21    16    17    2
    22    17    18    1
    23     4     5   ar
    24     5     6    1
    25    27    28    1
    26    28    29    2
    27    29    30    1
    28    30    22    1
    29    29    25    1
    30     5     1   ar
    31    18     9    1
    32    17    12    1
    33     6     7    1
    34     6     8    1
