@<TRIPOS>MOLECULE
*****
 34 38 0 0 0
SMALL
GASTEIGER

@<TRIPOS>ATOM
      1 N         143.1922  137.7007  161.9099 N.pl3   1  UNL1       -0.2776
      2 H         143.7905  136.9567  162.1501 H       1  UNL1        0.1552
      3 C         143.1599  138.2122  160.5002 C.ar    1  UNL1        0.2209
      4 N         143.7565  139.5491  160.1736 N.ar    1  UNL1       -0.2111
      5 C         143.7242  140.0605  158.7639 C.ar    1  UNL1        0.1147
      6 C         143.0955  139.2350  157.6807 C.ar    1  UNL1        0.0960
      7 CL        143.0632  139.7464  156.2710 Cl      1  UNL1       -0.0790
      8 C         142.4989  137.8980  158.0074 C.ar    1  UNL1        0.1138
      9 N         142.5312  137.3866  159.4171 N.ar    1  UNL1       -0.2111
     10 C         141.8702  137.0724  156.9242 C.ar    1  UNL1        0.1031
     11 C         140.6193  137.4131  156.1698 C.ar    1  UNL1        0.1196
     12 N         140.3579  136.3125  155.1846 N.ar    1  UNL1       -0.2248
     13 C         141.4473  135.2917  155.3303 C.ar    1  UNL1        0.1479
     14 C         141.7090  133.9952  154.6228 C.ar    1  UNL1        0.0374
     15 C         142.9053  133.1683  154.9905 C.ar    1  UNL1        0.0046
     16 C         143.8399  133.6380  156.0656 C.ar    1  UNL1        0.0191
     17 C         143.5782  134.9345  156.7731 C.ar    1  UNL1        0.0815
     18 N         142.3819  135.7614  156.4054 N.ar    1  UNL1       -0.2874
     19 C         140.8213  138.1901  163.0433 C.ar    1  UNL1        0.2571
     20 N         140.3572  138.9721  164.2363 N.ar    1  UNL1       -0.1302
     21 N         141.5619  139.5881  164.8840 N.ar    1  UNL1       -0.2471
     22 C         142.7704  139.1869  164.0915 C.ar    1  UNL1        0.1145
     23 C         142.3128  138.3228  162.9538 C.ar    1  UNL1        0.1248
     24 C         141.5584  140.4535  166.1092 C.3     1  UNL1        0.1088
     25 C         140.5263  141.5309  166.2635 C.3     1  UNL1        0.0459
     26 C         140.5229  142.3963  167.4888 C.3     1  UNL1        0.0954
     27 N         141.5516  142.1841  168.5597 N.am    1  UNL1       -0.2794
     28 C         141.5482  143.0496  169.7849 C.2     1  UNL1        0.2261
     29 C         140.5160  144.1270  169.9392 C.3     1  UNL1        0.0948
     30 O         142.5769  142.8374  170.8558 O.2     1  UNL1       -0.2749
     31 C         142.5837  141.1067  168.4054 C.3     1  UNL1        0.0954
     32 C         142.5871  140.2414  167.1801 C.3     1  UNL1        0.0459
     33 C         139.2942  138.1009  160.9434 C.3     1  UNL1        0.2543
     34 O         139.9475  137.4121  162.1048 O.3     1  UNL1       -0.4543
@<TRIPOS>BOND
     1    33    34    1
     2    34    19    1
     3    19    20   ar
     4    20    21   ar
     5    21    24    1
     6    24    25    1
     7    25    26    1
     8    26    27    1
     9    27    28   am
    10    28    29    1
    11    28    30    2
    12    27    31    1
    13    31    32    1
    14    21    22   ar
    15    22    23   ar
    16    23     1    1
    17     1     3    1
    18     3     4   ar
    19     4     5   ar
    20     5     6   ar
    21     6     7    1
    22     6     8   ar
    23     8    10    1
    24    10    11   ar
    25    11    12   ar
    26    12    13   ar
    27    13    14   ar
    28    14    15   ar
    29    15    16   ar
    30    16    17   ar
    31    17    18   ar
    32     8     9   ar
    33    23    19   ar
    34     9     3   ar
    35    32    24    1
    36    18    10   ar
    37    18    13   ar
    38     1     2    1
@<TRIPOS>MOLECULE
*****
 34 38 0 0 0
SMALL
GASTEIGER

@<TRIPOS>ATOM
      1 N         141.8437  137.2727  162.4644 N.pl3   1  UNL1       -0.2776
      2 H         141.9283  136.2919  162.4633 H       1  UNL1        0.1552
      3 C         142.4063  138.0753  161.3289 C.ar    1  UNL1        0.2209
      4 N         143.4390  139.1300  161.5953 N.ar    1  UNL1       -0.2111
      5 C         144.0016  139.9326  160.4598 C.ar    1  UNL1        0.1147
      6 C         143.5313  139.6805  159.0579 C.ar    1  UNL1        0.0960
      7 CL        144.0939  140.4830  157.9223 Cl      1  UNL1       -0.0790
      8 C         142.4985  138.6257  158.7915 C.ar    1  UNL1        0.1138
      9 N         141.9361  137.8232  159.9270 N.ar    1  UNL1       -0.2111
     10 C         142.0283  138.3735  157.3896 C.ar    1  UNL1        0.1031
     11 C         141.0850  139.2383  156.6071 C.ar    1  UNL1        0.1196
     12 N         140.8925  138.6116  155.2579 N.ar    1  UNL1       -0.2248
     13 C         141.7169  137.3595  155.2066 C.ar    1  UNL1        0.1479
     14 C         141.9191  136.3343  154.1305 C.ar    1  UNL1        0.0374
     15 C         142.8232  135.1619  154.3718 C.ar    1  UNL1        0.0046
     16 C         143.5251  135.0148  155.6892 C.ar    1  UNL1        0.0191
     17 C         143.3230  136.0400  156.7653 C.ar    1  UNL1        0.0815
     18 N         142.4189  137.2123  156.5241 N.ar    1  UNL1       -0.2874
     19 C         139.6691  138.0643  163.8020 C.ar    1  UNL1        0.2571
     20 N         139.4228  138.8395  165.0624 N.ar    1  UNL1       -0.1302
     21 N         140.7538  139.2188  165.6410 N.ar    1  UNL1       -0.2471
     22 C         141.8227  138.6780  164.7382 C.ar    1  UNL1        0.1145
     23 C         141.1524  137.9645  163.6016 C.ar    1  UNL1        0.1248
     24 C         140.9767  140.0014  166.9011 C.3     1  UNL1        0.1088
     25 C         142.1669  140.9063  167.0212 C.3     1  UNL1        0.0459
     26 C         142.3899  141.6890  168.2814 C.3     1  UNL1        0.0954
     27 N         141.4226  141.5665  169.4212 N.am    1  UNL1       -0.2794
     28 C         141.6456  142.3492  170.6814 C.2     1  UNL1        0.2261
     29 C         142.8358  143.2541  170.8015 C.3     1  UNL1        0.0948
     30 O         140.6783  142.2268  171.8213 O.2     1  UNL1       -0.2749
     31 C         140.2324  140.6616  169.3011 C.3     1  UNL1        0.0954
     32 C         140.0095  139.8790  168.0409 C.3     1  UNL1        0.0459
     33 C         138.2417  138.2038  161.6357 C.3     1  UNL1        0.2543
     34 O         138.6170  137.4899  162.9004 O.3     1  UNL1       -0.4543
@<TRIPOS>BOND
     1    33    34    1
     2    34    19    1
     3    19    20   ar
     4    20    21   ar
     5    21    24    1
     6    24    25    1
     7    25    26    1
     8    26    27    1
     9    27    28   am
    10    28    29    1
    11    28    30    2
    12    27    31    1
    13    31    32    1
    14    21    22   ar
    15    22    23   ar
    16    23     1    1
    17     1     3    1
    18     3     4   ar
    19     4     5   ar
    20     5     6   ar
    21     6     7    1
    22     6     8   ar
    23     8    10    1
    24    10    11   ar
    25    11    12   ar
    26    12    13   ar
    27    13    14   ar
    28    14    15   ar
    29    15    16   ar
    30    16    17   ar
    31    17    18   ar
    32     8     9   ar
    33    23    19   ar
    34     9     3   ar
    35    32    24    1
    36    18    10   ar
    37    18    13   ar
    38     1     2    1
@<TRIPOS>MOLECULE
*****
 34 38 0 0 0
SMALL
GASTEIGER

@<TRIPOS>ATOM
      1 N         143.1084  143.5629  160.3820 N.pl3   1  UNL1       -0.2776
      2 H         143.7607  144.2199  160.0472 H       1  UNL1        0.1552
      3 C         143.5396  142.5077  161.3569 C.ar    1  UNL1        0.2209
      4 N         144.9039  142.5720  161.9769 N.ar    1  UNL1       -0.2111
      5 C         145.3351  141.5168  162.9519 C.ar    1  UNL1        0.1147
      6 C         144.4020  140.3973  163.3069 C.ar    1  UNL1        0.0960
      7 CL        144.8332  139.3422  164.2819 Cl      1  UNL1       -0.0790
      8 C         143.0375  140.3331  162.6869 C.ar    1  UNL1        0.1138
      9 N         142.6064  141.3883  161.7120 N.ar    1  UNL1       -0.2111
     10 C         142.1044  139.2136  163.0419 C.ar    1  UNL1        0.1031
     11 C         142.1191  137.8336  162.4542 C.ar    1  UNL1        0.1196
     12 N         141.0165  137.0447  163.0960 N.ar    1  UNL1       -0.2248
     13 C         140.3204  137.9372  164.0804 C.ar    1  UNL1        0.1479
     14 C         139.1611  137.7024  165.0028 C.ar    1  UNL1        0.0374
     15 C         138.6742  138.8081  165.8919 C.ar    1  UNL1        0.0046
     16 C         139.3465  140.1486  165.8585 C.ar    1  UNL1        0.0191
     17 C         140.5058  140.3833  164.9360 C.ar    1  UNL1        0.0815
     18 N         140.9927  139.2776  164.0469 N.ar    1  UNL1       -0.2874
     19 C         140.6248  144.5502  160.4258 C.ar    1  UNL1        0.2571
     20 N         139.3538  144.2576  159.6848 N.ar    1  UNL1       -0.1302
     21 N         139.6269  143.1437  158.7180 N.ar    1  UNL1       -0.2471
     22 C         141.0666  142.7479  158.8614 C.ar    1  UNL1        0.1145
     23 C         141.6834  143.6171  159.9169 C.ar    1  UNL1        0.1248
     24 C         138.6345  142.5329  157.7735 C.3     1  UNL1        0.1088
     25 C         138.2932  143.2302  156.4900 C.3     1  UNL1        0.0459
     26 C         137.3008  142.6193  155.5455 C.3     1  UNL1        0.0954
     27 N         136.6497  141.3112  155.8846 N.am    1  UNL1       -0.2794
     28 C         135.6572  140.7004  154.9400 C.2     1  UNL1        0.2261
     29 C         135.3160  141.3977  153.6566 C.3     1  UNL1        0.0948
     30 O         135.0061  139.3923  155.2791 O.2     1  UNL1       -0.2749
     31 C         136.9910  140.6140  157.1681 C.3     1  UNL1        0.0954
     32 C         137.9834  141.2249  158.1125 C.3     1  UNL1        0.0459
     33 C         139.8879  145.6212  162.6752 C.3     1  UNL1        0.2543
     34 O         140.8055  145.5928  161.4890 O.3     1  UNL1       -0.4543
@<TRIPOS>BOND
     1    33    34    1
     2    34    19    1
     3    19    20   ar
     4    20    21   ar
     5    21    24    1
     6    24    25    1
     7    25    26    1
     8    26    27    1
     9    27    28   am
    10    28    29    1
    11    28    30    2
    12    27    31    1
    13    31    32    1
    14    21    22   ar
    15    22    23   ar
    16    23     1    1
    17     1     3    1
    18     3     4   ar
    19     4     5   ar
    20     5     6   ar
    21     6     7    1
    22     6     8   ar
    23     8    10    1
    24    10    11   ar
    25    11    12   ar
    26    12    13   ar
    27    13    14   ar
    28    14    15   ar
    29    15    16   ar
    30    16    17   ar
    31    17    18   ar
    32     8     9   ar
    33    23    19   ar
    34     9     3   ar
    35    32    24    1
    36    18    10   ar
    37    18    13   ar
    38     1     2    1
@<TRIPOS>MOLECULE
*****
 34 38 0 0 0
SMALL
GASTEIGER

@<TRIPOS>ATOM
      1 N         141.5705  137.9569  162.0018 N.pl3   1  UNL1       -0.2776
      2 H         141.9876  137.0663  161.9535 H       1  UNL1        0.1552
      3 C         141.5688  138.8506  160.7972 C.ar    1  UNL1        0.2209
      4 N         141.6269  138.2553  159.4216 N.ar    1  UNL1       -0.2111
      5 C         141.6252  139.1490  158.2169 C.ar    1  UNL1        0.1147
      6 C         141.5655  140.6380  158.3878 C.ar    1  UNL1        0.0960
      7 CL        141.5638  141.5318  157.1832 Cl      1  UNL1       -0.0790
      8 C         141.5074  141.2334  159.7635 C.ar    1  UNL1        0.1138
      9 N         141.5091  140.3396  160.9681 N.ar    1  UNL1       -0.2111
     10 C         141.4477  142.7224  159.9344 C.ar    1  UNL1        0.1031
     11 C         142.2758  143.7290  159.1920 C.ar    1  UNL1        0.1196
     12 N         141.8893  145.0950  159.6765 N.ar    1  UNL1       -0.2248
     13 C         140.8224  144.9326  160.7182 C.ar    1  UNL1        0.1479
     14 C         140.0641  145.9305  161.5423 C.ar    1  UNL1        0.0374
     15 C         139.0329  145.4622  162.5258 C.ar    1  UNL1        0.0046
     16 C         138.7600  143.9958  162.6852 C.ar    1  UNL1        0.0191
     17 C         139.5182  142.9979  161.8612 C.ar    1  UNL1        0.0815
     18 N         140.5495  143.4663  160.8777 N.ar    1  UNL1       -0.2874
     19 C         139.5052  138.2160  163.6788 C.ar    1  UNL1        0.2571
     20 N         139.3071  138.8381  165.0293 N.ar    1  UNL1       -0.1302
     21 N         140.6163  139.4264  165.4653 N.ar    1  UNL1       -0.2471
     22 C         141.6235  139.1679  164.3843 C.ar    1  UNL1        0.1145
     23 C         140.9369  138.4198  163.2801 C.ar    1  UNL1        0.1248
     24 C         140.8731  140.1467  166.7557 C.3     1  UNL1        0.1088
     25 C         142.0564  141.0598  166.8822 C.3     1  UNL1        0.0459
     26 C         142.3133  141.7802  168.1727 C.3     1  UNL1        0.0954
     27 N         141.3868  141.5873  169.3365 N.am    1  UNL1       -0.2794
     28 C         141.6436  142.3077  170.6269 C.2     1  UNL1        0.2261
     29 C         142.8270  143.2208  170.7535 C.3     1  UNL1        0.0948
     30 O         140.7171  142.1149  171.7908 O.2     1  UNL1       -0.2749
     31 C         140.2034  140.6743  169.2099 C.3     1  UNL1        0.0954
     32 C         139.9467  139.9540  167.9194 C.3     1  UNL1        0.0459
     33 C         137.7844  138.2254  161.7324 C.3     1  UNL1        0.2543
     34 O         138.4560  137.5135  162.8692 O.3     1  UNL1       -0.4543
@<TRIPOS>BOND
     1    33    34    1
     2    34    19    1
     3    19    20   ar
     4    20    21   ar
     5    21    24    1
     6    24    25    1
     7    25    26    1
     8    26    27    1
     9    27    28   am
    10    28    29    1
    11    28    30    2
    12    27    31    1
    13    31    32    1
    14    21    22   ar
    15    22    23   ar
    16    23     1    1
    17     1     3    1
    18     3     4   ar
    19     4     5   ar
    20     5     6   ar
    21     6     7    1
    22     6     8   ar
    23     8    10    1
    24    10    11   ar
    25    11    12   ar
    26    12    13   ar
    27    13    14   ar
    28    14    15   ar
    29    15    16   ar
    30    16    17   ar
    31    17    18   ar
    32     8     9   ar
    33    23    19   ar
    34     9     3   ar
    35    32    24    1
    36    18    10   ar
    37    18    13   ar
    38     1     2    1
@<TRIPOS>MOLECULE
*****
 34 38 0 0 0
SMALL
GASTEIGER

@<TRIPOS>ATOM
      1 N         142.2835  145.1200  161.6493 N.pl3   1  UNL1       -0.2776
      2 H         142.6298  146.0416  161.6528 H       1  UNL1        0.1552
      3 C         141.4145  144.6497  160.5208 C.ar    1  UNL1        0.2209
      4 N         140.3245  143.6521  160.7791 N.ar    1  UNL1       -0.2111
      5 C         139.4554  143.1818  159.6506 C.ar    1  UNL1        0.1147
      6 C         139.6764  143.7089  158.2638 C.ar    1  UNL1        0.0960
      7 CL        138.8074  143.2386  157.1353 Cl      1  UNL1       -0.0790
      8 C         140.7665  144.7065  158.0055 C.ar    1  UNL1        0.1138
      9 N         141.6355  145.1768  159.1340 N.ar    1  UNL1       -0.2111
     10 C         140.9875  145.2337  156.6187 C.ar    1  UNL1        0.1031
     11 C         141.9082  144.6484  155.5893 C.ar    1  UNL1        0.1196
     12 N         141.8163  145.4917  154.3522 N.ar    1  UNL1       -0.2248
     13 C         140.8388  146.5981  154.6170 C.ar    1  UNL1        0.1479
     14 C         140.3489  147.7303  153.7636 C.ar    1  UNL1        0.0374
     15 C         139.3468  148.7030  154.3110 C.ar    1  UNL1        0.0046
     16 C         138.8345  148.5436  155.7118 C.ar    1  UNL1        0.0191
     17 C         139.3244  147.4114  156.5652 C.ar    1  UNL1        0.0815
     18 N         140.3265  146.4387  156.0178 N.ar    1  UNL1       -0.2874
     19 C         143.8018  143.2573  162.8198 C.ar    1  UNL1        0.2571
     20 N         143.7538  142.5145  164.1221 N.ar    1  UNL1       -0.1302
     21 N         142.5474  142.9844  164.8796 N.ar    1  UNL1       -0.2471
     22 C         141.8497  144.0176  164.0455 C.ar    1  UNL1        0.1145
     23 C         142.6250  144.1863  162.7725 C.ar    1  UNL1        0.1248
     24 C         142.1146  142.5052  166.2335 C.3     1  UNL1        0.1088
     25 C         143.1410  142.1899  167.2809 C.3     1  UNL1        0.0459
     26 C         142.7082  141.7107  168.6349 C.3     1  UNL1        0.0954
     27 N         141.2490  141.5467  168.9412 N.am    1  UNL1       -0.2794
     28 C         140.8162  141.0675  170.2952 C.2     1  UNL1        0.2261
     29 C         141.8426  140.7522  171.3426 C.3     1  UNL1        0.0948
     30 O         139.3570  140.9035  170.6017 O.2     1  UNL1       -0.2749
     31 C         140.2226  141.8620  167.8938 C.3     1  UNL1        0.0954
     32 C         140.6555  142.3412  166.5399 C.3     1  UNL1        0.0459
     33 C         144.4731  142.5073  160.4247 C.3     1  UNL1        0.2543
     34 O         144.8436  143.0990  161.7523 O.3     1  UNL1       -0.4543
@<TRIPOS>BOND
     1    33    34    1
     2    34    19    1
     3    19    20   ar
     4    20    21   ar
     5    21    24    1
     6    24    25    1
     7    25    26    1
     8    26    27    1
     9    27    28   am
    10    28    29    1
    11    28    30    2
    12    27    31    1
    13    31    32    1
    14    21    22   ar
    15    22    23   ar
    16    23     1    1
    17     1     3    1
    18     3     4   ar
    19     4     5   ar
    20     5     6   ar
    21     6     7    1
    22     6     8   ar
    23     8    10    1
    24    10    11   ar
    25    11    12   ar
    26    12    13   ar
    27    13    14   ar
    28    14    15   ar
    29    15    16   ar
    30    16    17   ar
    31    17    18   ar
    32     8     9   ar
    33    23    19   ar
    34     9     3   ar
    35    32    24    1
    36    18    10   ar
    37    18    13   ar
    38     1     2    1
@<TRIPOS>MOLECULE
*****
 34 38 0 0 0
SMALL
GASTEIGER

@<TRIPOS>ATOM
      1 N         138.0349  142.8509  160.2773 N.pl3   1  UNL1       -0.2776
      2 H         137.1364  143.1544  160.0133 H       1  UNL1        0.1552
      3 C         138.5075  143.0443  161.6878 C.ar    1  UNL1        0.2209
      4 N         137.5127  143.1260  162.8074 N.ar    1  UNL1       -0.2111
      5 C         137.9852  143.3194  164.2179 C.ar    1  UNL1        0.1147
      6 C         139.4525  143.4311  164.5086 C.ar    1  UNL1        0.0960
      7 CL        139.9250  143.6245  165.9190 Cl      1  UNL1       -0.0790
      8 C         140.4473  143.3494  163.3889 C.ar    1  UNL1        0.1138
      9 N         139.9748  143.1560  161.9785 N.ar    1  UNL1       -0.2111
     10 C         141.9146  143.4611  163.6796 C.ar    1  UNL1        0.1031
     11 C         142.6620  144.7290  163.9694 C.ar    1  UNL1        0.1196
     12 N         144.1014  144.3760  164.2005 N.ar    1  UNL1       -0.2248
     13 C         144.2437  142.8900  164.0536 C.ar    1  UNL1        0.1479
     14 C         145.4293  141.9787  164.1713 C.ar    1  UNL1        0.0374
     15 C         145.2633  140.5020  163.9672 C.ar    1  UNL1        0.0046
     16 C         143.9118  139.9365  163.6452 C.ar    1  UNL1        0.0191
     17 C         142.7262  140.8478  163.5275 C.ar    1  UNL1        0.0815
     18 N         142.8922  142.3246  163.7317 N.ar    1  UNL1       -0.2874
     19 C         139.7403  142.8980  158.2195 C.ar    1  UNL1        0.2571
     20 N         140.4852  141.8587  157.4353 N.ar    1  UNL1       -0.1302
     21 N         140.1368  140.5136  158.0004 N.ar    1  UNL1       -0.2471
     22 C         139.1765  140.7215  159.1338 C.ar    1  UNL1        0.1145
     23 C         138.9314  142.1952  159.2692 C.ar    1  UNL1        0.1248
     24 C         140.6573  139.1925  157.5169 C.3     1  UNL1        0.1088
     25 C         142.0887  138.8158  157.7603 C.3     1  UNL1        0.0459
     26 C         142.6092  137.4947  157.2768 C.3     1  UNL1        0.0954
     27 N         141.6982  136.5503  156.5500 N.am    1  UNL1       -0.2794
     28 C         142.2188  135.2291  156.0665 C.2     1  UNL1        0.2261
     29 C         143.6502  134.8525  156.3099 C.3     1  UNL1        0.0948
     30 O         141.3079  134.2846  155.3397 O.2     1  UNL1       -0.2749
     31 C         140.2668  136.9269  156.3067 C.3     1  UNL1        0.0954
     32 C         139.7464  138.2480  156.7902 C.3     1  UNL1        0.0459
     33 C         140.5536  145.2563  158.9454 C.3     1  UNL1        0.2543
     34 O         139.7946  144.3799  157.9937 O.3     1  UNL1       -0.4543
@<TRIPOS>BOND
     1    33    34    1
     2    34    19    1
     3    19    20   ar
     4    20    21   ar
     5    21    24    1
     6    24    25    1
     7    25    26    1
     8    26    27    1
     9    27    28   am
    10    28    29    1
    11    28    30    2
    12    27    31    1
    13    31    32    1
    14    21    22   ar
    15    22    23   ar
    16    23     1    1
    17     1     3    1
    18     3     4   ar
    19     4     5   ar
    20     5     6   ar
    21     6     7    1
    22     6     8   ar
    23     8    10    1
    24    10    11   ar
    25    11    12   ar
    26    12    13   ar
    27    13    14   ar
    28    14    15   ar
    29    15    16   ar
    30    16    17   ar
    31    17    18   ar
    32     8     9   ar
    33    23    19   ar
    34     9     3   ar
    35    32    24    1
    36    18    10   ar
    37    18    13   ar
    38     1     2    1
@<TRIPOS>MOLECULE
*****
 34 38 0 0 0
SMALL
GASTEIGER

@<TRIPOS>ATOM
      1 N         142.2208  145.1356  161.2820 N.pl3   1  UNL1       -0.2776
      2 H         142.5587  146.0594  161.3238 H       1  UNL1        0.1552
      3 C         141.3702  144.6997  160.1260 C.ar    1  UNL1        0.2209
      4 N         140.7087  143.3536  160.1472 N.ar    1  UNL1       -0.2111
      5 C         139.8581  142.9177  158.9912 C.ar    1  UNL1        0.1147
      6 C         139.6690  143.8278  157.8140 C.ar    1  UNL1        0.0960
      7 CL        138.8184  143.3919  156.6579 Cl      1  UNL1       -0.0790
      8 C         140.3305  145.1740  157.7928 C.ar    1  UNL1        0.1138
      9 N         141.1811  145.6098  158.9488 N.ar    1  UNL1       -0.2111
     10 C         140.1414  146.0841  156.6155 C.ar    1  UNL1        0.1031
     11 C         139.1445  147.2004  156.5153 C.ar    1  UNL1        0.1196
     12 N         139.3029  147.8440  155.1697 N.ar    1  UNL1       -0.2248
     13 C         140.3978  147.1254  154.4383 C.ar    1  UNL1        0.1479
     14 C         140.9899  147.3210  153.0741 C.ar    1  UNL1        0.0374
     15 C         142.1002  146.4290  152.6034 C.ar    1  UNL1        0.0046
     16 C         142.6184  145.3413  153.4969 C.ar    1  UNL1        0.0191
     17 C         142.0264  145.1457  154.8612 C.ar    1  UNL1        0.0815
     18 N         140.9161  146.0378  155.3319 N.ar    1  UNL1       -0.2874
     19 C         143.7168  143.2131  162.3825 C.ar    1  UNL1        0.2571
     20 N         143.6687  142.4343  163.6636 N.ar    1  UNL1       -0.1302
     21 N         142.4789  142.9039  164.4472 N.ar    1  UNL1       -0.2471
     22 C         141.7917  143.9730  163.6505 C.ar    1  UNL1        0.1145
     23 C         142.5568  144.1641  162.3744 C.ar    1  UNL1        0.1248
     24 C         142.0514  142.3940  165.7915 C.3     1  UNL1        0.1088
     25 C         140.6199  142.0140  166.0290 C.3     1  UNL1        0.0459
     26 C         140.1924  141.5040  167.3734 C.3     1  UNL1        0.0954
     27 N         141.1965  141.3742  168.4802 N.am    1  UNL1       -0.2794
     28 C         140.7689  140.8642  169.8246 C.2     1  UNL1        0.2261
     29 C         139.3374  140.4842  170.0620 C.3     1  UNL1        0.0948
     30 O         141.7729  140.7343  170.9314 O.2     1  UNL1       -0.2749
     31 C         142.6280  141.7542  168.2427 C.3     1  UNL1        0.0954
     32 C         143.0554  142.2641  166.8983 C.3     1  UNL1        0.0459
     33 C         144.3690  142.4413  159.9891 C.3     1  UNL1        0.2543
     34 O         144.7444  143.0667  161.2997 O.3     1  UNL1       -0.4543
@<TRIPOS>BOND
     1    33    34    1
     2    34    19    1
     3    19    20   ar
     4    20    21   ar
     5    21    24    1
     6    24    25    1
     7    25    26    1
     8    26    27    1
     9    27    28   am
    10    28    29    1
    11    28    30    2
    12    27    31    1
    13    31    32    1
    14    21    22   ar
    15    22    23   ar
    16    23     1    1
    17     1     3    1
    18     3     4   ar
    19     4     5   ar
    20     5     6   ar
    21     6     7    1
    22     6     8   ar
    23     8    10    1
    24    10    11   ar
    25    11    12   ar
    26    12    13   ar
    27    13    14   ar
    28    14    15   ar
    29    15    16   ar
    30    16    17   ar
    31    17    18   ar
    32     8     9   ar
    33    23    19   ar
    34     9     3   ar
    35    32    24    1
    36    18    10   ar
    37    18    13   ar
    38     1     2    1
@<TRIPOS>MOLECULE
*****
 34 38 0 0 0
SMALL
GASTEIGER

@<TRIPOS>ATOM
      1 N         142.1204  139.8591  158.1362 N.pl3   1  UNL1       -0.2776
      2 H         141.9199  140.6818  157.6340 H       1  UNL1        0.1552
      3 C         141.9036  139.8142  159.6197 C.ar    1  UNL1        0.2209
      4 N         142.8688  139.0730  160.4966 N.ar    1  UNL1       -0.2111
      5 C         142.6519  139.0281  161.9802 C.ar    1  UNL1        0.1147
      6 C         141.4700  139.7245  162.5868 C.ar    1  UNL1        0.0960
      7 CL        141.2532  139.6796  164.0704 Cl      1  UNL1       -0.0790
      8 C         140.5048  140.4658  161.7098 C.ar    1  UNL1        0.1138
      9 N         140.7217  140.5106  160.2264 N.ar    1  UNL1       -0.2111
     10 C         139.3228  141.1622  162.3165 C.ar    1  UNL1        0.1031
     11 C         137.8883  140.7456  162.1797 C.ar    1  UNL1        0.1196
     12 N         137.0467  141.7234  162.9451 N.ar    1  UNL1       -0.2248
     13 C         137.9611  142.7442  163.5548 C.ar    1  UNL1        0.1479
     14 C         137.6946  143.9447  164.4137 C.ar    1  UNL1        0.0374
     15 C         138.8348  144.7984  164.8841 C.ar    1  UNL1        0.0046
     16 C         140.2415  144.4516  164.4956 C.ar    1  UNL1        0.0191
     17 C         140.5080  143.2511  163.6367 C.ar    1  UNL1        0.0815
     18 N         139.3678  142.3974  163.1664 N.ar    1  UNL1       -0.2874
     19 C         143.8533  138.6056  156.5328 C.ar    1  UNL1        0.2571
     20 N         144.0052  137.2020  156.0260 N.ar    1  UNL1       -0.1302
     21 N         142.8886  136.3794  156.5976 N.ar    1  UNL1       -0.2471
     22 C         142.0466  137.2746  157.4576 C.ar    1  UNL1        0.1145
     23 C         142.6429  138.6505  157.4176 C.ar    1  UNL1        0.1248
     24 C         142.6550  134.9182  156.3522 C.3     1  UNL1        0.1088
     25 C         143.5020  133.8957  157.0500 C.3     1  UNL1        0.0459
     26 C         143.2684  132.4344  156.8046 C.3     1  UNL1        0.0954
     27 N         142.1877  131.9958  155.8614 N.am    1  UNL1       -0.2794
     28 C         141.9541  130.5344  155.6160 C.2     1  UNL1        0.2261
     29 C         142.8012  129.5120  156.3139 C.3     1  UNL1        0.0948
     30 O         140.8735  130.0957  154.6728 O.2     1  UNL1       -0.2749
     31 C         141.3407  133.0182  155.1636 C.3     1  UNL1        0.0954
     32 C         141.5744  134.4795  155.4090 C.3     1  UNL1        0.0459
     33 C         144.7558  140.3492  154.8313 C.3     1  UNL1        0.2543
     34 O         144.7538  139.7614  156.2113 O.3     1  UNL1       -0.4543
@<TRIPOS>BOND
     1    33    34    1
     2    34    19    1
     3    19    20   ar
     4    20    21   ar
     5    21    24    1
     6    24    25    1
     7    25    26    1
     8    26    27    1
     9    27    28   am
    10    28    29    1
    11    28    30    2
    12    27    31    1
    13    31    32    1
    14    21    22   ar
    15    22    23   ar
    16    23     1    1
    17     1     3    1
    18     3     4   ar
    19     4     5   ar
    20     5     6   ar
    21     6     7    1
    22     6     8   ar
    23     8    10    1
    24    10    11   ar
    25    11    12   ar
    26    12    13   ar
    27    13    14   ar
    28    14    15   ar
    29    15    16   ar
    30    16    17   ar
    31    17    18   ar
    32     8     9   ar
    33    23    19   ar
    34     9     3   ar
    35    32    24    1
    36    18    10   ar
    37    18    13   ar
    38     1     2    1
@<TRIPOS>MOLECULE
*****
 34 38 0 0 0
SMALL
GASTEIGER

@<TRIPOS>ATOM
      1 N         142.0757  140.1753  158.2138 N.pl3   1  UNL1       -0.2776
      2 H         141.3974  140.7494  157.7900 H       1  UNL1        0.1552
      3 C         142.5719  140.4937  159.5931 C.ar    1  UNL1        0.2209
      4 N         143.6370  139.6447  160.2215 N.ar    1  UNL1       -0.2111
      5 C         144.1331  139.9631  161.6008 C.ar    1  UNL1        0.1147
      6 C         143.5642  141.1304  162.3517 C.ar    1  UNL1        0.0960
      7 CL        144.0604  141.4488  163.7309 Cl      1  UNL1       -0.0790
      8 C         142.4991  141.9794  161.7232 C.ar    1  UNL1        0.1138
      9 N         142.0030  141.6610  160.3440 N.ar    1  UNL1       -0.2111
     10 C         141.9302  143.1467  162.4741 C.ar    1  UNL1        0.1031
     11 C         142.5825  144.4863  162.6470 C.ar    1  UNL1        0.1196
     12 N         141.6646  145.3468  163.4636 N.ar    1  UNL1       -0.2248
     13 C         140.4450  144.5390  163.7954 C.ar    1  UNL1        0.1479
     14 C         139.2062  144.8660  164.5754 C.ar    1  UNL1        0.0374
     15 C         138.1315  143.8331  164.7438 C.ar    1  UNL1        0.0046
     16 C         138.2956  142.4734  164.1322 C.ar    1  UNL1        0.0191
     17 C         139.5345  142.1464  163.3522 C.ar    1  UNL1        0.0815
     18 N         140.6091  143.1792  163.1838 N.ar    1  UNL1       -0.2874
     19 C         143.7127  138.9963  156.4602 C.ar    1  UNL1        0.2571
     20 N         143.9242  137.5886  155.9873 N.ar    1  UNL1       -0.1302
     21 N         142.9552  136.7046  156.7151 N.ar    1  UNL1       -0.2471
     22 C         142.1448  137.5659  157.6378 C.ar    1  UNL1        0.1145
     23 C         142.6129  138.9824  157.4802 C.ar    1  UNL1        0.1248
     24 C         142.8203  135.2199  156.5494 C.3     1  UNL1        0.1088
     25 C         143.7375  134.2957  157.2941 C.3     1  UNL1        0.0459
     26 C         143.6027  132.8109  157.1284 C.3     1  UNL1        0.0954
     27 N         142.5505  132.2505  156.2179 N.am    1  UNL1       -0.2794
     28 C         142.4156  130.7658  156.0522 C.2     1  UNL1        0.2261
     29 C         143.3329  129.8416  156.7969 C.3     1  UNL1        0.0948
     30 O         141.3635  130.2052  155.1418 O.2     1  UNL1       -0.2749
     31 C         141.6333  133.1747  155.4732 C.3     1  UNL1        0.0954
     32 C         141.7683  134.6594  155.6390 C.3     1  UNL1        0.0459
     33 C         143.7974  141.2146  155.1105 C.3     1  UNL1        0.2543
     34 O         144.4682  140.2057  155.9947 O.3     1  UNL1       -0.4543
@<TRIPOS>BOND
     1    33    34    1
     2    34    19    1
     3    19    20   ar
     4    20    21   ar
     5    21    24    1
     6    24    25    1
     7    25    26    1
     8    26    27    1
     9    27    28   am
    10    28    29    1
    11    28    30    2
    12    27    31    1
    13    31    32    1
    14    21    22   ar
    15    22    23   ar
    16    23     1    1
    17     1     3    1
    18     3     4   ar
    19     4     5   ar
    20     5     6   ar
    21     6     7    1
    22     6     8   ar
    23     8    10    1
    24    10    11   ar
    25    11    12   ar
    26    12    13   ar
    27    13    14   ar
    28    14    15   ar
    29    15    16   ar
    30    16    17   ar
    31    17    18   ar
    32     8     9   ar
    33    23    19   ar
    34     9     3   ar
    35    32    24    1
    36    18    10   ar
    37    18    13   ar
    38     1     2    1
