@<TRIPOS>MOLECULE
*****
 31 34 0 0 0
SMALL
GASTEIGER

@<TRIPOS>ATOM
      1 C         141.3750  142.1373  166.1280 C.2     1  UNL1        0.0021
      2 C         140.9087  142.6029  167.4755 C.2     1  UNL1        0.0130
      3 C         141.2138  141.7883  168.6975 C.3     1  UNL1        0.1543
      4 C         140.4423  143.0685  168.8229 C.3     1  UNL1        0.0614
      5 C         139.9760  143.5341  170.1704 C.3     1  UNL1        0.0725
      6 N         140.2811  142.7195  171.3924 N.3     1  UNL1       -0.2972
      7 C         141.0526  141.4392  171.2669 C.3     1  UNL1        0.0725
      8 C         141.5189  140.9736  169.9194 C.3     1  UNL1        0.0614
      9 O         141.9853  140.5080  168.5719 O.3     1  UNL1       -0.4754
     10 C         142.4516  140.0424  167.2244 C.ar    1  UNL1        0.1719
     11 C         143.2231  138.7620  167.0989 C.ar    1  UNL1        0.1677
     12 O         143.5282  137.9474  168.3209 O.3     1  UNL1       -0.5029
     13 C         143.6894  138.2965  165.7514 C.ar    1  UNL1        0.0398
     14 C         143.3843  139.1111  164.5295 C.ar    1  UNL1        0.0033
     15 C         142.6129  140.3914  164.6549 C.ar    1  UNL1        0.0032
     16 C         142.1465  140.8570  166.0025 C.ar    1  UNL1        0.0368
     17 H         139.3857  142.4830  171.8198 H       1  UNL1        0.1233
     18 H         143.2369  138.2383  169.1626 H       1  UNL1        0.2923
     19 C         140.4597  144.5812  162.4620 C.ar    1  UNL1        0.0536
     20 C         141.6971  144.8631  163.2616 C.ar    1  UNL1        0.0045
     21 C         142.0022  144.0484  164.4835 C.ar    1  UNL1        0.0001
     22 C         141.0699  142.9519  164.9060 C.ar    1  UNL1       -0.0001
     23 C         139.8324  142.6700  164.1064 C.ar    1  UNL1        0.0001
     24 C         139.5273  143.4847  162.8844 C.ar    1  UNL1        0.0045
     25 N         140.7589  145.0218  159.9191 N.am    1  UNL1       -0.2761
     26 C         140.1546  145.3959  161.2400 C.2     1  UNL1        0.2490
     27 O         139.2450  146.5846  161.3390 O.2     1  UNL1       -0.2699
     28 C         141.4211  145.8604  157.5509 C.3     1  UNL1        0.0233
     29 C         140.4538  145.8365  158.6971 C.3     1  UNL1        0.0938
     30 C         141.6685  143.8331  159.8202 C.3     1  UNL1        0.0938
     31 C         141.1205  142.5028  159.3960 C.3     1  UNL1        0.0233
@<TRIPOS>BOND
     1    28    29    1
     2    29    25    1
     3    25    30    1
     4    30    31    1
     5    25    26   am
     6    26    27    2
     7    26    19    1
     8    19    20   ar
     9    20    21   ar
    10    21    22   ar
    11    22     1    1
    12     1     2    2
    13     2     3    1
    14     3     4    1
    15     4     5    1
    16     5     6    1
    17     6     7    1
    18     7     8    1
    19     3     9    1
    20     9    10    1
    21    10    11   ar
    22    11    12    1
    23    11    13   ar
    24    13    14   ar
    25    14    15   ar
    26    15    16   ar
    27    22    23   ar
    28    23    24   ar
    29    24    19   ar
    30    16     1    1
    31     8     3    1
    32    16    10   ar
    33     6    17    1
    34    12    18    1
@<TRIPOS>MOLECULE
*****
 31 34 0 0 0
SMALL
GASTEIGER

@<TRIPOS>ATOM
      1 C         141.4947  141.0042  166.3176 C.2     1  UNL1        0.0021
      2 C         142.1211  141.6294  167.5287 C.2     1  UNL1        0.0130
      3 C         141.4783  141.4664  168.8742 C.3     1  UNL1        0.1543
      4 C         142.7475  142.2545  168.7399 C.3     1  UNL1        0.0614
      5 C         143.3738  142.8796  169.9510 C.3     1  UNL1        0.0725
      6 N         142.7310  142.7167  171.2964 N.3     1  UNL1       -0.2972
      7 C         141.4618  141.9286  171.4307 C.3     1  UNL1        0.0725
      8 C         140.8355  141.3034  170.2196 C.3     1  UNL1        0.0614
      9 O         140.2091  140.6782  169.0085 O.3     1  UNL1       -0.4754
     10 C         139.5827  140.0531  167.7973 C.ar    1  UNL1        0.1719
     11 C         138.3135  139.2650  167.9316 C.ar    1  UNL1        0.1677
     12 O         137.6707  139.1020  169.2770 O.3     1  UNL1       -0.5029
     13 C         137.6872  138.6398  166.7205 C.ar    1  UNL1        0.0398
     14 C         138.3300  138.8028  165.3750 C.ar    1  UNL1        0.0033
     15 C         139.5992  139.5909  165.2407 C.ar    1  UNL1        0.0032
     16 C         140.2256  140.2161  166.4519 C.ar    1  UNL1        0.0368
     17 H         142.5330  143.6550  171.6438 H       1  UNL1        0.1233
     18 H         138.0619  139.4925  170.0336 H       1  UNL1        0.2923
     19 C         143.4232  141.4931  162.2813 C.ar    1  UNL1        0.0536
     20 C         143.8981  140.4188  163.2142 C.ar    1  UNL1        0.0045
     21 C         143.2553  140.2559  164.5596 C.ar    1  UNL1        0.0001
     22 C         142.1376  141.1671  164.9721 C.ar    1  UNL1       -0.0001
     23 C         141.6626  142.2415  164.0392 C.ar    1  UNL1        0.0001
     24 C         142.3055  142.4044  162.6937 C.ar    1  UNL1        0.0045
     25 N         143.6037  140.8224  159.7778 N.am    1  UNL1       -0.2761
     26 C         144.0661  141.6560  160.9358 C.2     1  UNL1        0.2490
     27 O         145.1714  142.6527  160.7485 O.2     1  UNL1       -0.2699
     28 C         143.8843  142.1542  157.5647 C.3     1  UNL1        0.0233
     29 C         144.2465  140.9854  158.4323 C.3     1  UNL1        0.0938
     30 C         142.4984  139.8257  159.9651 C.3     1  UNL1        0.0938
     31 C         142.8190  138.3666  160.0994 C.3     1  UNL1        0.0233
@<TRIPOS>BOND
     1    28    29    1
     2    29    25    1
     3    25    30    1
     4    30    31    1
     5    25    26   am
     6    26    27    2
     7    26    19    1
     8    19    20   ar
     9    20    21   ar
    10    21    22   ar
    11    22     1    1
    12     1     2    2
    13     2     3    1
    14     3     4    1
    15     4     5    1
    16     5     6    1
    17     6     7    1
    18     7     8    1
    19     3     9    1
    20     9    10    1
    21    10    11   ar
    22    11    12    1
    23    11    13   ar
    24    13    14   ar
    25    14    15   ar
    26    15    16   ar
    27    22    23   ar
    28    23    24   ar
    29    24    19   ar
    30    16     1    1
    31     8     3    1
    32    16    10   ar
    33     6    17    1
    34    12    18    1
@<TRIPOS>MOLECULE
*****
 31 34 0 0 0
SMALL
GASTEIGER

@<TRIPOS>ATOM
      1 C         141.2648  140.1293  166.3213 C.2     1  UNL1        0.0021
      2 C         142.1230  140.9338  167.2522 C.2     1  UNL1        0.0130
      3 C         141.6681  141.1904  168.6583 C.3     1  UNL1        0.1543
      4 C         142.9811  141.7381  168.1831 C.3     1  UNL1        0.0614
      5 C         143.8392  142.5425  169.1139 C.3     1  UNL1        0.0725
      6 N         143.3843  142.7992  170.5201 N.3     1  UNL1       -0.2972
      7 C         142.0712  142.2514  170.9953 C.3     1  UNL1        0.0725
      8 C         141.2131  141.4471  170.0644 C.3     1  UNL1        0.0614
      9 O         140.3549  140.6427  169.1335 O.3     1  UNL1       -0.4754
     10 C         139.4968  139.8383  168.2026 C.ar    1  UNL1        0.1719
     11 C         138.1837  139.2905  168.6779 C.ar    1  UNL1        0.1677
     12 O         137.7288  139.5472  170.0840 O.3     1  UNL1       -0.5029
     13 C         137.3256  138.4861  167.7470 C.ar    1  UNL1        0.0398
     14 C         137.7805  138.2295  166.3409 C.ar    1  UNL1        0.0033
     15 C         139.0936  138.7772  165.8656 C.ar    1  UNL1        0.0032
     16 C         139.9517  139.5816  166.7965 C.ar    1  UNL1        0.0368
     17 H         143.3399  143.8117  170.6350 H       1  UNL1        0.1233
     18 H         138.2648  140.0496  170.6655 H       1  UNL1        0.2923
     19 C         142.6295  139.3594  162.1029 C.ar    1  UNL1        0.0536
     20 C         142.0819  140.7038  162.4804 C.ar    1  UNL1        0.0045
     21 C         141.6270  140.9605  163.8866 C.ar    1  UNL1        0.0001
     22 C         141.7197  139.8727  164.9152 C.ar    1  UNL1       -0.0001
     23 C         142.2673  138.5282  164.5377 C.ar    1  UNL1        0.0001
     24 C         142.7222  138.2715  163.1315 C.ar    1  UNL1        0.0045
     25 N         142.0839  138.7437  159.6385 N.am    1  UNL1       -0.2761
     26 C         143.0845  139.1027  160.6968 C.2     1  UNL1        0.2490
     27 O         144.5400  139.2051  160.3490 O.2     1  UNL1       -0.2699
     28 C         142.7059  137.0789  157.7434 C.3     1  UNL1        0.0233
     29 C         142.5388  138.4871  158.2324 C.3     1  UNL1        0.0938
     30 C         140.6283  138.6414  159.9864 C.3     1  UNL1        0.0938
     31 C         139.7106  139.7977  159.7206 C.3     1  UNL1        0.0233
@<TRIPOS>BOND
     1    28    29    1
     2    29    25    1
     3    25    30    1
     4    30    31    1
     5    25    26   am
     6    26    27    2
     7    26    19    1
     8    19    20   ar
     9    20    21   ar
    10    21    22   ar
    11    22     1    1
    12     1     2    2
    13     2     3    1
    14     3     4    1
    15     4     5    1
    16     5     6    1
    17     6     7    1
    18     7     8    1
    19     3     9    1
    20     9    10    1
    21    10    11   ar
    22    11    12    1
    23    11    13   ar
    24    13    14   ar
    25    14    15   ar
    26    15    16   ar
    27    22    23   ar
    28    23    24   ar
    29    24    19   ar
    30    16     1    1
    31     8     3    1
    32    16    10   ar
    33     6    17    1
    34    12    18    1
@<TRIPOS>MOLECULE
*****
 31 34 0 0 0
SMALL
GASTEIGER

@<TRIPOS>ATOM
      1 C         140.2295  142.0606  162.5936 C.2     1  UNL1        0.0021
      2 C         140.5960  143.1947  161.6827 C.2     1  UNL1        0.0130
      3 C         140.0563  143.2376  160.2838 C.3     1  UNL1        0.1543
      4 C         140.9624  144.3288  160.7719 C.3     1  UNL1        0.0614
      5 C         141.3288  145.4628  159.8611 C.3     1  UNL1        0.0725
      6 N         140.7892  145.5057  158.4622 N.3     1  UNL1       -0.2972
      7 C         139.8831  144.4145  157.9741 C.3     1  UNL1        0.0725
      8 C         139.5167  143.2804  158.8849 C.3     1  UNL1        0.0614
      9 O         139.1502  142.1463  159.7957 O.3     1  UNL1       -0.4754
     10 C         138.7838  141.0123  160.7065 C.ar    1  UNL1        0.1719
     11 C         137.8777  139.9210  160.2185 C.ar    1  UNL1        0.1677
     12 O         137.3380  139.9638  158.8195 O.3     1  UNL1       -0.5029
     13 C         137.5112  138.7869  161.1293 C.ar    1  UNL1        0.0398
     14 C         138.0509  138.7441  162.5282 C.ar    1  UNL1        0.0033
     15 C         138.9569  139.8353  163.0163 C.ar    1  UNL1        0.0032
     16 C         139.3234  140.9694  162.1055 C.ar    1  UNL1        0.0368
     17 H         141.5944  145.5218  157.8364 H       1  UNL1        0.1233
     18 H         137.5669  140.6723  158.2506 H       1  UNL1        0.2923
     19 C         141.8484  141.9320  166.7903 C.ar    1  UNL1        0.0536
     20 C         140.5947  142.7000  166.4933 C.ar    1  UNL1        0.0045
     21 C         140.0551  142.7429  165.0944 C.ar    1  UNL1        0.0001
     22 C         140.7691  142.0177  163.9925 C.ar    1  UNL1       -0.0001
     23 C         142.0229  141.2496  164.2895 C.ar    1  UNL1        0.0001
     24 C         142.5626  141.2068  165.6884 C.ar    1  UNL1        0.0045
     25 N         141.7148  141.0410  169.2271 N.am    1  UNL1       -0.2761
     26 C         142.3881  141.8891  168.1892 C.2     1  UNL1        0.2490
     27 O         143.6011  142.6944  168.5501 O.2     1  UNL1       -0.2699
     28 C         143.2532  139.9479  171.0128 C.3     1  UNL1        0.0233
     29 C         142.2544  140.9982  170.6260 C.3     1  UNL1        0.0938
     30 C         140.5018  140.2357  168.8662 C.3     1  UNL1        0.0938
     31 C         139.2222  140.4258  169.6254 C.3     1  UNL1        0.0233
@<TRIPOS>BOND
     1    28    29    1
     2    29    25    1
     3    25    30    1
     4    30    31    1
     5    25    26   am
     6    26    27    2
     7    26    19    1
     8    19    20   ar
     9    20    21   ar
    10    21    22   ar
    11    22     1    1
    12     1     2    2
    13     2     3    1
    14     3     4    1
    15     4     5    1
    16     5     6    1
    17     6     7    1
    18     7     8    1
    19     3     9    1
    20     9    10    1
    21    10    11   ar
    22    11    12    1
    23    11    13   ar
    24    13    14   ar
    25    14    15   ar
    26    15    16   ar
    27    22    23   ar
    28    23    24   ar
    29    24    19   ar
    30    16     1    1
    31     8     3    1
    32    16    10   ar
    33     6    17    1
    34    12    18    1
@<TRIPOS>MOLECULE
*****
 31 34 0 0 0
SMALL
GASTEIGER

@<TRIPOS>ATOM
      1 C         142.0692  141.6294  166.2667 C.2     1  UNL1        0.0021
      2 C         141.3941  142.4050  167.3589 C.2     1  UNL1        0.0130
      3 C         141.3449  141.8509  168.7520 C.3     1  UNL1        0.1543
      4 C         140.7190  143.1804  168.4511 C.3     1  UNL1        0.0614
      5 C         140.0439  143.9559  169.5433 C.3     1  UNL1        0.0725
      6 N         139.9947  143.4018  170.9363 N.3     1  UNL1       -0.2972
      7 C         140.6206  142.0723  171.2372 C.3     1  UNL1        0.0725
      8 C         141.2957  141.2968  170.1450 C.3     1  UNL1        0.0614
      9 O         141.9708  140.5213  169.0528 O.3     1  UNL1       -0.4754
     10 C         142.6459  139.7458  167.9607 C.ar    1  UNL1        0.1719
     11 C         143.2718  138.4162  168.2615 C.ar    1  UNL1        0.1677
     12 O         143.2226  137.8621  169.6545 O.3     1  UNL1       -0.5029
     13 C         143.9469  137.6407  167.1693 C.ar    1  UNL1        0.0398
     14 C         143.9961  138.1948  165.7763 C.ar    1  UNL1        0.0033
     15 C         143.3702  139.5244  165.4754 C.ar    1  UNL1        0.0032
     16 C         142.6951  140.2999  166.5676 C.ar    1  UNL1        0.0368
     17 H         139.0093  143.3273  171.1889 H       1  UNL1        0.1233
     18 H         142.8009  138.3465  170.3368 H       1  UNL1        0.2923
     19 C         142.2168  143.2917  162.0876 C.ar    1  UNL1        0.0536
     20 C         141.3394  142.1149  162.3961 C.ar    1  UNL1        0.0045
     21 C         141.2902  141.5608  163.7892 C.ar    1  UNL1        0.0001
     22 C         142.1184  142.1835  164.8737 C.ar    1  UNL1       -0.0001
     23 C         142.9959  143.3604  164.5652 C.ar    1  UNL1        0.0001
     24 C         143.0451  143.9145  163.1722 C.ar    1  UNL1        0.0045
     25 N         141.1362  144.6890  160.1825 N.am    1  UNL1       -0.2761
     26 C         142.2661  143.8458  160.6946 C.2     1  UNL1        0.2490
     27 O         143.4452  143.5565  159.8136 O.2     1  UNL1       -0.2699
     28 C         140.0213  146.0201  158.2498 C.3     1  UNL1        0.0233
     29 C         141.1854  145.2431  158.7894 C.3     1  UNL1        0.0938
     30 C         139.9570  144.9782  161.0634 C.3     1  UNL1        0.0938
     31 C         139.9774  146.1674  161.9774 C.3     1  UNL1        0.0233
@<TRIPOS>BOND
     1    28    29    1
     2    29    25    1
     3    25    30    1
     4    30    31    1
     5    25    26   am
     6    26    27    2
     7    26    19    1
     8    19    20   ar
     9    20    21   ar
    10    21    22   ar
    11    22     1    1
    12     1     2    2
    13     2     3    1
    14     3     4    1
    15     4     5    1
    16     5     6    1
    17     6     7    1
    18     7     8    1
    19     3     9    1
    20     9    10    1
    21    10    11   ar
    22    11    12    1
    23    11    13   ar
    24    13    14   ar
    25    14    15   ar
    26    15    16   ar
    27    22    23   ar
    28    23    24   ar
    29    24    19   ar
    30    16     1    1
    31     8     3    1
    32    16    10   ar
    33     6    17    1
    34    12    18    1
@<TRIPOS>MOLECULE
*****
 31 34 0 0 0
SMALL
GASTEIGER

@<TRIPOS>ATOM
      1 C         141.9642  141.9838  162.3991 C.2     1  UNL1        0.0021
      2 C         141.6929  143.1351  161.4764 C.2     1  UNL1        0.0130
      3 C         142.0465  143.0304  160.0225 C.3     1  UNL1        0.1543
      4 C         141.4217  144.2862  160.5539 C.3     1  UNL1        0.0614
      5 C         141.1505  145.4374  159.6313 C.3     1  UNL1        0.0725
      6 N         141.5041  145.3327  158.1773 N.3     1  UNL1       -0.2972
      7 C         142.1289  144.0769  157.6459 C.3     1  UNL1        0.0725
      8 C         142.4001  142.9257  158.5685 C.3     1  UNL1        0.0614
      9 O         142.6714  141.7745  159.4911 O.3     1  UNL1       -0.4754
     10 C         142.9426  140.6233  160.4137 C.ar    1  UNL1        0.1719
     11 C         143.5674  139.3673  159.8823 C.ar    1  UNL1        0.1677
     12 O         143.9210  139.2627  158.4284 O.3     1  UNL1       -0.5029
     13 C         143.8386  138.2162  160.8049 C.ar    1  UNL1        0.0398
     14 C         143.4850  138.3209  162.2589 C.ar    1  UNL1        0.0033
     15 C         142.8602  139.5767  162.7903 C.ar    1  UNL1        0.0032
     16 C         142.5890  140.7280  161.8677 C.ar    1  UNL1        0.0368
     17 H         142.1543  146.0927  157.9769 H       1  UNL1        0.1233
     18 H         143.7516  139.9818  157.8521 H       1  UNL1        0.2923
     19 C         140.9034  142.2979  166.7609 C.ar    1  UNL1        0.0536
     20 C         142.3184  142.5195  166.3154 C.ar    1  UNL1        0.0045
     21 C         142.6720  142.4148  164.8614 C.ar    1  UNL1        0.0001
     22 C         141.6106  142.0885  163.8530 C.ar    1  UNL1       -0.0001
     23 C         140.1955  141.8669  164.2986 C.ar    1  UNL1        0.0001
     24 C         139.8419  141.9716  165.7526 C.ar    1  UNL1        0.0045
     25 N         140.6509  141.1959  169.1001 N.am    1  UNL1       -0.2761
     26 C         140.5498  142.4026  168.2149 C.2     1  UNL1        0.2490
     27 O         140.0952  143.7140  168.7837 O.2     1  UNL1       -0.2699
     28 C         141.3427  141.6990  171.5534 C.3     1  UNL1        0.0233
     29 C         140.2973  141.3006  170.5541 C.3     1  UNL1        0.0938
     30 C         141.1056  139.8844  168.5314 C.3     1  UNL1        0.0938
     31 C         142.5397  139.4658  168.6651 C.3     1  UNL1        0.0233
@<TRIPOS>BOND
     1    28    29    1
     2    29    25    1
     3    25    30    1
     4    30    31    1
     5    25    26   am
     6    26    27    2
     7    26    19    1
     8    19    20   ar
     9    20    21   ar
    10    21    22   ar
    11    22     1    1
    12     1     2    2
    13     2     3    1
    14     3     4    1
    15     4     5    1
    16     5     6    1
    17     6     7    1
    18     7     8    1
    19     3     9    1
    20     9    10    1
    21    10    11   ar
    22    11    12    1
    23    11    13   ar
    24    13    14   ar
    25    14    15   ar
    26    15    16   ar
    27    22    23   ar
    28    23    24   ar
    29    24    19   ar
    30    16     1    1
    31     8     3    1
    32    16    10   ar
    33     6    17    1
    34    12    18    1
@<TRIPOS>MOLECULE
*****
 31 34 0 0 0
SMALL
GASTEIGER

@<TRIPOS>ATOM
      1 C         142.0050  142.2136  162.4421 C.2     1  UNL1        0.0021
      2 C         142.6178  141.3055  161.4173 C.2     1  UNL1        0.0130
      3 C         142.5424  141.6586  159.9614 C.3     1  UNL1        0.1543
      4 C         143.2305  140.3975  160.3926 C.3     1  UNL1        0.0614
      5 C         143.8432  139.4895  159.3679 C.3     1  UNL1        0.0725
      6 N         143.7678  139.8426  157.9120 N.3     1  UNL1       -0.2972
      7 C         143.0797  141.1038  157.4808 C.3     1  UNL1        0.0725
      8 C         142.4670  142.0118  158.5056 C.3     1  UNL1        0.0614
      9 O         141.8543  142.9199  159.5303 O.3     1  UNL1       -0.4754
     10 C         141.2416  143.8279  160.5550 C.ar    1  UNL1        0.1719
     11 C         140.5534  145.0891  160.1239 C.ar    1  UNL1        0.1677
     12 O         140.4780  145.4423  158.6680 O.3     1  UNL1       -0.5029
     13 C         139.9407  145.9971  161.1486 C.ar    1  UNL1        0.0398
     14 C         140.0161  145.6440  162.6045 C.ar    1  UNL1        0.0033
     15 C         140.7042  144.3828  163.0356 C.ar    1  UNL1        0.0032
     16 C         141.3170  143.4747  162.0109 C.ar    1  UNL1        0.0368
     17 H         143.2886  139.0719  157.4465 H       1  UNL1        0.1233
     18 H         140.8608  144.8751  158.0279 H       1  UNL1        0.2923
     19 C         142.2312  141.1541  166.8097 C.ar    1  UNL1        0.0536
     20 C         141.1173  140.6129  165.9634 C.ar    1  UNL1        0.0045
     21 C         141.0419  140.9660  164.5075 C.ar    1  UNL1        0.0001
     22 C         142.0804  141.8604  163.8979 C.ar    1  UNL1       -0.0001
     23 C         143.1944  142.4016  164.7443 C.ar    1  UNL1        0.0001
     24 C         143.2698  142.0485  166.2002 C.ar    1  UNL1        0.0045
     25 N         141.6853  141.7039  169.2895 N.am    1  UNL1       -0.2761
     26 C         142.3066  140.8009  168.2656 C.2     1  UNL1        0.2490
     27 O         143.0033  139.5446  168.6975 O.2     1  UNL1       -0.2699
     28 C         140.7562  140.4098  171.3419 C.3     1  UNL1        0.0233
     29 C         141.7607  141.3507  170.7454 C.3     1  UNL1        0.0938
     30 C         140.9886  142.9602  168.8576 C.3     1  UNL1        0.0938
     31 C         140.4138  143.8900  169.8847 C.3     1  UNL1        0.0233
@<TRIPOS>BOND
     1    28    29    1
     2    29    25    1
     3    25    30    1
     4    30    31    1
     5    25    26   am
     6    26    27    2
     7    26    19    1
     8    19    20   ar
     9    20    21   ar
    10    21    22   ar
    11    22     1    1
    12     1     2    2
    13     2     3    1
    14     3     4    1
    15     4     5    1
    16     5     6    1
    17     6     7    1
    18     7     8    1
    19     3     9    1
    20     9    10    1
    21    10    11   ar
    22    11    12    1
    23    11    13   ar
    24    13    14   ar
    25    14    15   ar
    26    15    16   ar
    27    22    23   ar
    28    23    24   ar
    29    24    19   ar
    30    16     1    1
    31     8     3    1
    32    16    10   ar
    33     6    17    1
    34    12    18    1
@<TRIPOS>MOLECULE
*****
 31 34 0 0 0
SMALL
GASTEIGER

@<TRIPOS>ATOM
      1 C         140.6650  140.2543  167.1341 C.2     1  UNL1        0.0021
      2 C         139.3817  139.5432  167.4465 C.2     1  UNL1        0.0130
      3 C         138.7822  139.6453  168.8177 C.3     1  UNL1        0.1543
      4 C         138.0984  138.8321  167.7589 C.3     1  UNL1        0.0614
      5 C         136.8152  138.1210  168.0714 C.3     1  UNL1        0.0725
      6 N         136.2158  138.2232  169.4426 N.3     1  UNL1       -0.2972
      7 C         136.8995  139.0364  170.5014 C.3     1  UNL1        0.0725
      8 C         138.1828  139.7475  170.1889 C.3     1  UNL1        0.0614
      9 O         139.4661  140.4586  169.8765 O.3     1  UNL1       -0.4754
     10 C         140.7493  141.1697  169.5641 C.ar    1  UNL1        0.1719
     11 C         141.4332  141.9829  170.6229 C.ar    1  UNL1        0.1677
     12 O         140.8337  142.0851  171.9941 O.3     1  UNL1       -0.5029
     13 C         142.7164  142.6940  170.3105 C.ar    1  UNL1        0.0398
     14 C         143.3158  142.5918  168.9393 C.ar    1  UNL1        0.0033
     15 C         142.6321  141.7786  167.8805 C.ar    1  UNL1        0.0032
     16 C         141.3488  141.0675  168.1929 C.ar    1  UNL1        0.0368
     17 H         136.1423  137.2720  169.8034 H       1  UNL1        0.1233
     18 H         140.0321  141.6409  172.1893 H       1  UNL1        0.2923
     19 C         142.4633  139.9478  163.0205 C.ar    1  UNL1        0.0536
     20 C         142.8243  138.9426  164.0736 C.ar    1  UNL1        0.0045
     21 C         142.2249  139.0448  165.4448 C.ar    1  UNL1        0.0001
     22 C         141.2644  140.1521  165.7629 C.ar    1  UNL1       -0.0001
     23 C         140.9034  141.1574  164.7097 C.ar    1  UNL1        0.0001
     24 C         141.5028  141.0553  163.3385 C.ar    1  UNL1        0.0045
     25 N         142.3660  139.0532  160.5832 N.am    1  UNL1       -0.2761
     26 C         143.0628  139.8457  161.6492 C.2     1  UNL1        0.2490
     27 O         144.3590  140.5361  161.3440 O.2     1  UNL1       -0.2699
     28 C         142.6091  137.7975  158.3217 C.3     1  UNL1        0.0233
     29 C         142.9654  138.9510  159.2120 C.3     1  UNL1        0.0938
     30 C         141.0697  138.3627  160.8884 C.3     1  UNL1        0.0938
     31 C         139.7685  139.0218  160.5388 C.3     1  UNL1        0.0233
@<TRIPOS>BOND
     1    28    29    1
     2    29    25    1
     3    25    30    1
     4    30    31    1
     5    25    26   am
     6    26    27    2
     7    26    19    1
     8    19    20   ar
     9    20    21   ar
    10    21    22   ar
    11    22     1    1
    12     1     2    2
    13     2     3    1
    14     3     4    1
    15     4     5    1
    16     5     6    1
    17     6     7    1
    18     7     8    1
    19     3     9    1
    20     9    10    1
    21    10    11   ar
    22    11    12    1
    23    11    13   ar
    24    13    14   ar
    25    14    15   ar
    26    15    16   ar
    27    22    23   ar
    28    23    24   ar
    29    24    19   ar
    30    16     1    1
    31     8     3    1
    32    16    10   ar
    33     6    17    1
    34    12    18    1
@<TRIPOS>MOLECULE
*****
 31 34 0 0 0
SMALL
GASTEIGER

@<TRIPOS>ATOM
      1 C         141.6232  140.0995  163.6878 C.2     1  UNL1        0.0021
      2 C         140.4957  139.5427  164.5056 C.2     1  UNL1        0.0130
      3 C         140.3421  139.9442  165.9427 C.3     1  UNL1        0.1543
      4 C         139.3682  138.9861  165.3235 C.3     1  UNL1        0.0614
      5 C         138.2407  138.4294  166.1413 C.3     1  UNL1        0.0725
      6 N         138.0871  138.8309  167.5784 N.3     1  UNL1       -0.2972
      7 C         139.0610  139.7890  168.1977 C.3     1  UNL1        0.0725
      8 C         140.1885  140.3457  167.3798 C.3     1  UNL1        0.0614
      9 O         141.3160  140.9024  166.5620 O.3     1  UNL1       -0.4754
     10 C         142.4435  141.4590  165.7442 C.ar    1  UNL1        0.1719
     11 C         143.4174  142.4172  166.3634 C.ar    1  UNL1        0.1677
     12 O         143.2638  142.8187  167.8005 O.3     1  UNL1       -0.5029
     13 C         144.5449  142.9739  165.5456 C.ar    1  UNL1        0.0398
     14 C         144.6985  142.5724  164.1085 C.ar    1  UNL1        0.0033
     15 C         143.7246  141.6143  163.4892 C.ar    1  UNL1        0.0032
     16 C         142.5971  141.0576  164.3071 C.ar    1  UNL1        0.0368
     17 H         138.1267  137.9735  168.1295 H       1  UNL1        0.1233
     18 H         142.5595  142.4709  168.3114 H       1  UNL1        0.2923
     19 C         142.0840  138.8951  159.3765 C.ar    1  UNL1        0.0536
     20 C         142.7989  138.1290  160.4498 C.ar    1  UNL1        0.0045
     21 C         142.6453  138.5304  161.8869 C.ar    1  UNL1        0.0001
     22 C         141.7768  139.6980  162.2507 C.ar    1  UNL1       -0.0001
     23 C         141.0619  140.4642  161.1774 C.ar    1  UNL1        0.0001
     24 C         141.2154  140.0628  159.7403 C.ar    1  UNL1        0.0045
     25 N         143.2622  139.1695  157.0773 N.am    1  UNL1       -0.2761
     26 C         142.2376  138.4937  157.9394 C.2     1  UNL1        0.2490
     27 O         141.3665  137.4163  157.3644 O.2     1  UNL1       -0.2699
     28 C         144.2628  137.5840  155.2787 C.3     1  UNL1        0.0233
     29 C         143.4158  138.7681  155.6402 C.3     1  UNL1        0.0938
     30 C         144.1333  140.2469  157.6522 C.3     1  UNL1        0.0938
     31 C         145.1388  140.9420  156.7830 C.3     1  UNL1        0.0233
@<TRIPOS>BOND
     1    28    29    1
     2    29    25    1
     3    25    30    1
     4    30    31    1
     5    25    26   am
     6    26    27    2
     7    26    19    1
     8    19    20   ar
     9    20    21   ar
    10    21    22   ar
    11    22     1    1
    12     1     2    2
    13     2     3    1
    14     3     4    1
    15     4     5    1
    16     5     6    1
    17     6     7    1
    18     7     8    1
    19     3     9    1
    20     9    10    1
    21    10    11   ar
    22    11    12    1
    23    11    13   ar
    24    13    14   ar
    25    14    15   ar
    26    15    16   ar
    27    22    23   ar
    28    23    24   ar
    29    24    19   ar
    30    16     1    1
    31     8     3    1
    32    16    10   ar
    33     6    17    1
    34    12    18    1
