@<TRIPOS>MOLECULE
*****
 19 21 0 0 0
SMALL
GASTEIGER

@<TRIPOS>ATOM
      1 C         141.6534  140.7212  171.1022 C.3     1  UNL1        0.0521
      2 C         141.1145  140.8806  169.7114 C.ar    1  UNL1        0.0593
      3 C         141.6019  142.0016  168.8421 C.ar    1  UNL1        0.0147
      4 C         141.0630  142.1610  167.4514 C.ar    1  UNL1        0.0027
      5 C         140.0367  141.1993  166.9299 C.ar    1  UNL1        0.0174
      6 C         139.4978  141.3586  165.5392 C.ar    1  UNL1       -0.0027
      7 C         138.4716  140.3970  165.0177 C.ar    1  UNL1       -0.0207
      8 C         137.9842  139.2759  165.8870 C.ar    1  UNL1       -0.0027
      9 C         138.5231  139.1165  167.2778 C.ar    1  UNL1        0.0188
     10 C         139.5494  140.0783  167.7992 C.ar    1  UNL1        0.0809
     11 N         140.0883  139.9189  169.1900 N.ar    1  UNL1       -0.2497
     12 C         137.9327  140.5563  163.6270 C.3     1  UNL1        0.0437
     13 C         137.3084  141.8546  163.2087 C.3     1  UNL1        0.0768
     14 N         138.1758  142.9962  162.7678 N.3     1  UNL1       -0.2737
     15 C         138.9049  143.0959  161.4606 C.3     1  UNL1        0.0721
     16 C         139.6461  144.3998  161.4416 C.3     1  UNL1        0.0187
     17 C         139.3752  145.1060  162.7369 C.3     1  UNL1        0.0174
     18 C         138.4665  144.2385  163.5565 C.3     1  UNL1        0.0576
     19 C         137.9408  144.5574  164.9247 C.3     1  UNL1        0.0173
@<TRIPOS>BOND
     1     1     2    1
     2     2     3   ar
     3     3     4   ar
     4     4     5   ar
     5     5     6   ar
     6     6     7   ar
     7     7    12    1
     8    12    13    1
     9    13    14    1
    10    14    15    1
    11    15    16    1
    12    16    17    1
    13    17    18    1
    14    18    19    1
    15     7     8   ar
    16     8     9   ar
    17     9    10   ar
    18    10    11   ar
    19    11     2   ar
    20    10     5   ar
    21    18    14    1
@<TRIPOS>MOLECULE
*****
 19 21 0 0 0
SMALL
GASTEIGER

@<TRIPOS>ATOM
      1 C         144.1927  142.4787  169.9810 C.3     1  UNL1        0.0521
      2 C         143.0397  142.5170  169.0222 C.ar    1  UNL1        0.0593
      3 C         141.6695  142.8820  169.5112 C.ar    1  UNL1        0.0147
      4 C         140.5165  142.9203  168.5525 C.ar    1  UNL1        0.0027
      5 C         140.7338  142.5937  167.1047 C.ar    1  UNL1        0.0174
      6 C         139.5808  142.6320  166.1460 C.ar    1  UNL1       -0.0027
      7 C         139.7981  142.3053  164.6982 C.ar    1  UNL1       -0.0207
      8 C         141.1684  141.9403  164.2092 C.ar    1  UNL1       -0.0027
      9 C         142.3214  141.9020  165.1679 C.ar    1  UNL1        0.0188
     10 C         142.1040  142.2287  166.6157 C.ar    1  UNL1        0.0809
     11 N         143.2570  142.1903  167.5745 N.ar    1  UNL1       -0.2497
     12 C         138.6452  142.3437  163.7395 C.3     1  UNL1        0.0437
     13 C         137.7676  141.1385  163.5732 C.3     1  UNL1        0.0768
     14 N         138.3651  139.7634  163.6204 N.3     1  UNL1       -0.2737
     15 C         138.9160  139.0009  162.4520 C.3     1  UNL1        0.0721
     16 C         139.4080  137.6757  162.9537 C.3     1  UNL1        0.0187
     17 C         139.1612  137.6191  164.4322 C.3     1  UNL1        0.0174
     18 C         138.5167  138.9094  164.8442 C.3     1  UNL1        0.0576
     19 C         138.0973  139.2806  166.2357 C.3     1  UNL1        0.0173
@<TRIPOS>BOND
     1     1     2    1
     2     2     3   ar
     3     3     4   ar
     4     4     5   ar
     5     5     6   ar
     6     6     7   ar
     7     7    12    1
     8    12    13    1
     9    13    14    1
    10    14    15    1
    11    15    16    1
    12    16    17    1
    13    17    18    1
    14    18    19    1
    15     7     8   ar
    16     8     9   ar
    17     9    10   ar
    18    10    11   ar
    19    11     2   ar
    20    10     5   ar
    21    18    14    1
@<TRIPOS>MOLECULE
*****
 19 21 0 0 0
SMALL
GASTEIGER

@<TRIPOS>ATOM
      1 C         139.6650  146.3654  161.6996 C.3     1  UNL1        0.0521
      2 C         139.5458  145.1661  162.5927 C.ar    1  UNL1        0.0593
      3 C         140.2798  145.1288  163.9002 C.ar    1  UNL1        0.0147
      4 C         140.1605  143.9296  164.7933 C.ar    1  UNL1        0.0027
      5 C         139.3073  142.7676  164.3788 C.ar    1  UNL1        0.0174
      6 C         139.1881  141.5684  165.2719 C.ar    1  UNL1       -0.0027
      7 C         138.3348  140.4065  164.8574 C.ar    1  UNL1       -0.0207
      8 C         137.6007  140.4438  163.5498 C.ar    1  UNL1       -0.0027
      9 C         137.7200  141.6430  162.6567 C.ar    1  UNL1        0.0188
     10 C         138.5733  142.8050  163.0713 C.ar    1  UNL1        0.0809
     11 N         138.6925  144.0042  162.1782 N.ar    1  UNL1       -0.2497
     12 C         138.2156  139.2072  165.7505 C.3     1  UNL1        0.0437
     13 C         138.9150  137.9304  165.3891 C.3     1  UNL1        0.0768
     14 N         140.0544  137.9496  164.4136 N.3     1  UNL1       -0.2737
     15 C         139.9921  137.5243  162.9766 C.3     1  UNL1        0.0721
     16 C         141.3553  137.7093  162.3788 C.3     1  UNL1        0.0187
     17 C         142.2602  138.2490  163.4464 C.3     1  UNL1        0.0174
     18 C         141.4562  138.3975  164.7040 C.3     1  UNL1        0.0576
     19 C         141.9648  138.9049  166.0208 C.3     1  UNL1        0.0173
@<TRIPOS>BOND
     1     1     2    1
     2     2     3   ar
     3     3     4   ar
     4     4     5   ar
     5     5     6   ar
     6     6     7   ar
     7     7    12    1
     8    12    13    1
     9    13    14    1
    10    14    15    1
    11    15    16    1
    12    16    17    1
    13    17    18    1
    14    18    19    1
    15     7     8   ar
    16     8     9   ar
    17     9    10   ar
    18    10    11   ar
    19    11     2   ar
    20    10     5   ar
    21    18    14    1
@<TRIPOS>MOLECULE
*****
 19 21 0 0 0
SMALL
GASTEIGER

@<TRIPOS>ATOM
      1 C         144.4962  142.7308  170.1930 C.3     1  UNL1        0.0521
      2 C         143.3804  141.9574  169.5552 C.ar    1  UNL1        0.0593
      3 C         143.0066  140.6049  170.0854 C.ar    1  UNL1        0.0147
      4 C         141.8909  139.8314  169.4475 C.ar    1  UNL1        0.0027
      5 C         141.1488  140.4104  168.2796 C.ar    1  UNL1        0.0174
      6 C         140.0331  139.6370  167.6418 C.ar    1  UNL1       -0.0027
      7 C         139.2910  140.2160  166.4739 C.ar    1  UNL1       -0.0207
      8 C         139.6648  141.5685  165.9437 C.ar    1  UNL1       -0.0027
      9 C         140.7806  142.3420  166.5815 C.ar    1  UNL1        0.0188
     10 C         141.5226  141.7629  167.7495 C.ar    1  UNL1        0.0809
     11 N         142.6384  142.5364  168.3873 N.ar    1  UNL1       -0.2497
     12 C         138.1753  139.4425  165.8361 C.3     1  UNL1        0.0437
     13 C         138.4523  138.1120  165.2012 C.3     1  UNL1        0.0768
     14 N         139.1566  138.0442  163.8785 N.3     1  UNL1       -0.2737
     15 C         138.5082  138.1330  162.5288 C.3     1  UNL1        0.0721
     16 C         139.5838  138.0194  161.4895 C.3     1  UNL1        0.0187
     17 C         140.8969  137.8604  162.1969 C.3     1  UNL1        0.0174
     18 C         140.6329  137.8757  163.6734 C.3     1  UNL1        0.0576
     19 C         141.6641  137.7454  164.7548 C.3     1  UNL1        0.0173
@<TRIPOS>BOND
     1     1     2    1
     2     2     3   ar
     3     3     4   ar
     4     4     5   ar
     5     5     6   ar
     6     6     7   ar
     7     7    12    1
     8    12    13    1
     9    13    14    1
    10    14    15    1
    11    15    16    1
    12    16    17    1
    13    17    18    1
    14    18    19    1
    15     7     8   ar
    16     8     9   ar
    17     9    10   ar
    18    10    11   ar
    19    11     2   ar
    20    10     5   ar
    21    18    14    1
@<TRIPOS>MOLECULE
*****
 19 21 0 0 0
SMALL
GASTEIGER

@<TRIPOS>ATOM
      1 C         139.9758  146.2618  162.3613 C.3     1  UNL1        0.0521
      2 C         139.4942  144.9629  162.9367 C.ar    1  UNL1        0.0593
      3 C         138.2005  144.3677  162.4656 C.ar    1  UNL1        0.0147
      4 C         137.7189  143.0689  163.0410 C.ar    1  UNL1        0.0027
      5 C         138.5311  142.3652  164.0875 C.ar    1  UNL1        0.0174
      6 C         138.0495  141.0664  164.6629 C.ar    1  UNL1       -0.0027
      7 C         138.8617  140.3627  165.7094 C.ar    1  UNL1       -0.0207
      8 C         140.1555  140.9579  166.1806 C.ar    1  UNL1       -0.0027
      9 C         140.6370  142.2568  165.6052 C.ar    1  UNL1        0.0188
     10 C         139.8248  142.9604  164.5586 C.ar    1  UNL1        0.0809
     11 N         140.3064  144.2593  163.9832 N.ar    1  UNL1       -0.2497
     12 C         138.3801  139.0639  166.2849 C.3     1  UNL1        0.0437
     13 C         138.6152  137.7817  165.5426 C.3     1  UNL1        0.0768
     14 N         139.2786  137.8047  164.1975 N.3     1  UNL1       -0.2737
     15 C         138.5802  137.8325  162.8703 C.3     1  UNL1        0.0721
     16 C         139.6268  137.8488  161.7959 C.3     1  UNL1        0.0187
     17 C         140.9721  137.8311  162.4591 C.3     1  UNL1        0.0174
     18 C         140.7569  137.8038  163.9433 C.3     1  UNL1        0.0576
     19 C         141.8314  137.7798  164.9897 C.3     1  UNL1        0.0173
@<TRIPOS>BOND
     1     1     2    1
     2     2     3   ar
     3     3     4   ar
     4     4     5   ar
     5     5     6   ar
     6     6     7   ar
     7     7    12    1
     8    12    13    1
     9    13    14    1
    10    14    15    1
    11    15    16    1
    12    16    17    1
    13    17    18    1
    14    18    19    1
    15     7     8   ar
    16     8     9   ar
    17     9    10   ar
    18    10    11   ar
    19    11     2   ar
    20    10     5   ar
    21    18    14    1
@<TRIPOS>MOLECULE
*****
 19 21 0 0 0
SMALL
GASTEIGER

@<TRIPOS>ATOM
      1 C         139.6708  146.3274  161.7596 C.3     1  UNL1        0.0521
      2 C         139.9749  145.3345  162.8420 C.ar    1  UNL1        0.0593
      3 C         138.8558  144.6951  163.6093 C.ar    1  UNL1        0.0147
      4 C         139.1599  143.7022  164.6917 C.ar    1  UNL1        0.0027
      5 C         140.5831  143.3486  165.0068 C.ar    1  UNL1        0.0174
      6 C         140.8873  142.3557  166.0893 C.ar    1  UNL1       -0.0027
      7 C         142.3105  142.0022  166.4044 C.ar    1  UNL1       -0.0207
      8 C         143.4297  142.6416  165.6371 C.ar    1  UNL1       -0.0027
      9 C         143.1256  143.6345  164.5547 C.ar    1  UNL1        0.0188
     10 C         141.7022  143.9880  164.2396 C.ar    1  UNL1        0.0809
     11 N         141.3981  144.9809  163.1572 N.ar    1  UNL1       -0.2497
     12 C         142.6146  141.0093  167.4868 C.3     1  UNL1        0.0437
     13 C         142.7944  139.5596  167.1459 C.3     1  UNL1        0.0768
     14 N         142.4418  139.0622  165.7753 N.3     1  UNL1       -0.2737
     15 C         141.0924  138.5792  165.3327 C.3     1  UNL1        0.0721
     16 C         141.1934  138.1790  163.8906 C.3     1  UNL1        0.0187
     17 C         142.6052  138.4146  163.4420 C.3     1  UNL1        0.0174
     18 C         143.3767  138.9605  164.6068 C.3     1  UNL1        0.0576
     19 C         144.8284  139.3382  164.6035 C.3     1  UNL1        0.0173
@<TRIPOS>BOND
     1     1     2    1
     2     2     3   ar
     3     3     4   ar
     4     4     5   ar
     5     5     6   ar
     6     6     7   ar
     7     7    12    1
     8    12    13    1
     9    13    14    1
    10    14    15    1
    11    15    16    1
    12    16    17    1
    13    17    18    1
    14    18    19    1
    15     7     8   ar
    16     8     9   ar
    17     9    10   ar
    18    10    11   ar
    19    11     2   ar
    20    10     5   ar
    21    18    14    1
@<TRIPOS>MOLECULE
*****
 19 21 0 0 0
SMALL
GASTEIGER

@<TRIPOS>ATOM
      1 C         138.5991  140.2501  169.9659 C.3     1  UNL1        0.0521
      2 C         139.7875  140.1130  169.0609 C.ar    1  UNL1        0.0593
      3 C         141.1385  139.8096  169.6378 C.ar    1  UNL1        0.0147
      4 C         142.3268  139.6724  168.7328 C.ar    1  UNL1        0.0027
      5 C         142.1643  139.8386  167.2510 C.ar    1  UNL1        0.0174
      6 C         143.3527  139.7015  166.3460 C.ar    1  UNL1       -0.0027
      7 C         143.1901  139.8677  164.8642 C.ar    1  UNL1       -0.0207
      8 C         141.8391  140.1711  164.2872 C.ar    1  UNL1       -0.0027
      9 C         140.6507  140.3083  165.1922 C.ar    1  UNL1        0.0188
     10 C         140.8133  140.1420  166.6741 C.ar    1  UNL1        0.0809
     11 N         139.6249  140.2792  167.5791 N.ar    1  UNL1       -0.2497
     12 C         144.3785  139.7305  163.9592 C.3     1  UNL1        0.0437
     13 C         145.3333  140.8759  163.7964 C.3     1  UNL1        0.0768
     14 N         144.8144  142.2819  163.7343 N.3     1  UNL1       -0.2737
     15 C         144.4999  143.1585  164.9101 C.3     1  UNL1        0.0721
     16 C         144.0100  144.4765  164.3879 C.3     1  UNL1        0.0187
     17 C         144.0218  144.4146  162.8892 C.3     1  UNL1        0.0174
     18 C         144.5190  143.0583  162.4853 C.3     1  UNL1        0.0576
     19 C         144.6905  142.5649  161.0792 C.3     1  UNL1        0.0173
@<TRIPOS>BOND
     1     1     2    1
     2     2     3   ar
     3     3     4   ar
     4     4     5   ar
     5     5     6   ar
     6     6     7   ar
     7     7    12    1
     8    12    13    1
     9    13    14    1
    10    14    15    1
    11    15    16    1
    12    16    17    1
    13    17    18    1
    14    18    19    1
    15     7     8   ar
    16     8     9   ar
    17     9    10   ar
    18    10    11   ar
    19    11     2   ar
    20    10     5   ar
    21    18    14    1
@<TRIPOS>MOLECULE
*****
 19 21 0 0 0
SMALL
GASTEIGER

@<TRIPOS>ATOM
      1 C         141.1872  140.8426  171.2784 C.3     1  UNL1        0.0521
      2 C         140.7243  140.9920  169.8594 C.ar    1  UNL1        0.0593
      3 C         141.1709  142.1696  169.0448 C.ar    1  UNL1        0.0147
      4 C         140.7079  142.3190  167.6259 C.ar    1  UNL1        0.0027
      5 C         139.7984  141.2906  167.0216 C.ar    1  UNL1        0.0174
      6 C         139.3355  141.4400  165.6026 C.ar    1  UNL1       -0.0027
      7 C         138.4259  140.4117  164.9983 C.ar    1  UNL1       -0.0207
      8 C         137.9793  139.2339  165.8129 C.ar    1  UNL1       -0.0027
      9 C         138.4422  139.0846  167.2318 C.ar    1  UNL1        0.0188
     10 C         139.3518  140.1130  167.8362 C.ar    1  UNL1        0.0809
     11 N         139.8148  139.9636  169.2551 N.ar    1  UNL1       -0.2497
     12 C         137.9630  140.5610  163.5794 C.3     1  UNL1        0.0437
     13 C         138.8547  140.1351  162.4508 C.3     1  UNL1        0.0768
     14 N         140.0217  139.2312  162.7171 N.3     1  UNL1       -0.2737
     15 C         139.9836  137.7324  162.7627 C.3     1  UNL1        0.0721
     16 C         141.3701  137.2422  163.0584 C.3     1  UNL1        0.0187
     17 C         142.2651  138.4381  163.1955 C.3     1  UNL1        0.0174
     18 C         141.4317  139.6673  162.9846 C.3     1  UNL1        0.0576
     19 C         141.9223  141.0840  163.0327 C.3     1  UNL1        0.0173
@<TRIPOS>BOND
     1     1     2    1
     2     2     3   ar
     3     3     4   ar
     4     4     5   ar
     5     5     6   ar
     6     6     7   ar
     7     7    12    1
     8    12    13    1
     9    13    14    1
    10    14    15    1
    11    15    16    1
    12    16    17    1
    13    17    18    1
    14    18    19    1
    15     7     8   ar
    16     8     9   ar
    17     9    10   ar
    18    10    11   ar
    19    11     2   ar
    20    10     5   ar
    21    18    14    1
@<TRIPOS>MOLECULE
*****
 19 21 0 0 0
SMALL
GASTEIGER

@<TRIPOS>ATOM
      1 C         137.5881  138.3906  166.8642 C.3     1  UNL1        0.0521
      2 C         138.9283  138.5604  166.2123 C.ar    1  UNL1        0.0593
      3 C         139.3400  137.6478  165.0954 C.ar    1  UNL1        0.0147
      4 C         140.6802  137.8176  164.4434 C.ar    1  UNL1        0.0027
      5 C         141.6087  138.9000  164.9084 C.ar    1  UNL1        0.0174
      6 C         142.9489  139.0699  164.2564 C.ar    1  UNL1       -0.0027
      7 C         143.8773  140.1523  164.7214 C.ar    1  UNL1       -0.0207
      8 C         143.4656  141.0650  165.8384 C.ar    1  UNL1       -0.0027
      9 C         142.1254  140.8952  166.4903 C.ar    1  UNL1        0.0188
     10 C         141.1969  139.8127  166.0253 C.ar    1  UNL1        0.0809
     11 N         139.8568  139.6428  166.6773 N.ar    1  UNL1       -0.2497
     12 C         145.2175  140.3221  164.0695 C.3     1  UNL1        0.0437
     13 C         145.6078  141.6505  163.4921 C.3     1  UNL1        0.0768
     14 N         144.6112  142.4476  162.7038 N.3     1  UNL1       -0.2737
     15 C         144.1349  142.1383  161.3155 C.3     1  UNL1        0.0721
     16 C         143.1452  143.1935  160.9191 C.3     1  UNL1        0.0187
     17 C         143.0099  144.1549  162.0624 C.3     1  UNL1        0.0174
     18 C         143.9159  143.6940  163.1654 C.3     1  UNL1        0.0576
     19 C         144.0951  144.3621  164.4964 C.3     1  UNL1        0.0173
@<TRIPOS>BOND
     1     1     2    1
     2     2     3   ar
     3     3     4   ar
     4     4     5   ar
     5     5     6   ar
     6     6     7   ar
     7     7    12    1
     8    12    13    1
     9    13    14    1
    10    14    15    1
    11    15    16    1
    12    16    17    1
    13    17    18    1
    14    18    19    1
    15     7     8   ar
    16     8     9   ar
    17     9    10   ar
    18    10    11   ar
    19    11     2   ar
    20    10     5   ar
    21    18    14    1
