@<TRIPOS>MOLECULE
*****
 51 58 0 0 0
SMALL
GASTEIGER

@<TRIPOS>ATOM
      1 C         141.6115  141.8571  164.8781 C.3     1  UNL1        0.0236
      2 C         141.5940  140.9536  163.6808 C.3     1  UNL1        0.0257
      3 C         141.6307  141.5378  162.2997 C.3     1  UNL1        0.0940
      4 N         141.6849  143.0255  162.1159 N.am    1  UNL1       -0.2760
      5 C         141.7217  143.6097  160.7348 C.2     1  UNL1        0.2499
      6 O         141.7759  145.0974  160.5510 O.2     1  UNL1       -0.2699
      7 C         141.7024  143.9290  163.3131 C.3     1  UNL1        0.0940
      8 C         141.6657  143.3449  164.6942 C.3     1  UNL1        0.0257
      9 C         141.7042  142.7061  159.5376 C.ar    1  UNL1        0.0656
     10 C         142.9943  142.2576  158.9176 C.ar    1  UNL1        0.0276
     11 C         142.9767  141.3540  157.7204 C.ar    1  UNL1        0.1494
     12 C         141.6690  140.8990  157.1433 C.ar    1  UNL1        0.1594
     13 F         141.6516  139.9954  155.9461 F       1  UNL1       -0.2027
     14 C         140.3790  141.3475  157.7633 C.ar    1  UNL1        0.0426
     15 C         140.3965  142.2511  158.9605 C.ar    1  UNL1        0.0643
     16 CL        139.1065  142.6997  159.5806 Cl      1  UNL1       -0.0820
     17 S         144.2668  140.9054  157.1003 S.O2    1  UNL1        0.0623
     18 O         144.4391  139.8915  158.1922 O.2     1  UNL1       -0.1529
     19 O         144.0945  141.9193  156.0084 O.2     1  UNL1       -0.1529
     20 N         145.5569  140.4568  156.4803 N.3     1  UNL1       -0.1807
     21 H         145.3194  140.0198  155.5898 H       1  UNL1        0.1487
     22 C         146.6401  141.4552  156.1974 C.3     1  UNL1        0.0756
     23 C         147.7929  141.9180  155.3567 C.3     1  UNL1        0.0188
     24 C         147.3633  142.7215  156.5482 C.3     1  UNL1        0.0188
     25 C         141.6100  142.2971  166.3122 C.ar    1  UNL1       -0.0204
     26 C         140.3737  142.9003  166.9102 C.ar    1  UNL1       -0.0041
     27 C         140.3722  143.3403  168.3443 C.ar    1  UNL1        0.0020
     28 C         141.6070  143.1769  169.1802 C.ar    1  UNL1        0.0296
     29 C         142.8433  142.5737  168.5820 C.ar    1  UNL1        0.1398
     30 F         144.0779  142.4104  169.4179 F       1  UNL1       -0.2042
     31 C         142.8447  142.1337  167.1480 C.ar    1  UNL1        0.0254
     32 C         141.5568  140.5223  165.5599 C.3     1  UNL1        0.0215
     33 C         140.3235  139.6751  165.4525 C.3     1  UNL1        0.0723
     34 C         140.2623  139.6385  165.3127 C.3     1  UNL1        0.0893
     35 C         139.2947  140.7640  165.5303 C.3     1  UNL1        0.0386
     36 C         138.2596  141.0748  164.4901 C.3     1  UNL1        0.0594
     37 C         137.4356  141.0243  163.2378 C.3     1  UNL1        0.0174
     38 C         137.9551  139.9042  162.3860 C.3     1  UNL1        0.0174
     39 C         139.1001  139.2624  163.1120 C.3     1  UNL1        0.0594
     40 C         140.1945  138.8239  164.0550 C.3     1  UNL1        0.0386
     41 N         139.2883  139.9859  164.4125 N.3     1  UNL1       -0.2751
     42 C         142.9249  138.5697  164.6316 C.3     1  UNL1        0.0718
     43 C         142.6713  138.7837  166.0945 C.ar    1  UNL1        0.1207
     44 N         143.3634  138.6262  167.4159 N.ar    1  UNL1       -0.2309
     45 C         142.4173  139.0728  168.4909 C.ar    1  UNL1        0.0983
     46 C         142.5536  139.1406  169.9831 C.ar    1  UNL1        0.0206
     47 C         141.4130  139.6421  170.8183 C.ar    1  UNL1        0.0016
     48 C         140.1362  140.0756  170.1612 C.ar    1  UNL1        0.0016
     49 C         139.9999  140.0078  168.6690 C.ar    1  UNL1        0.0188
     50 C         141.1405  139.5063  167.8338 C.ar    1  UNL1        0.0785
     51 N         141.2974  139.3277  166.3528 N.ar    1  UNL1       -0.3167
@<TRIPOS>BOND
     1    42    43    1
     2    43    44   ar
     3    44    45   ar
     4    45    46   ar
     5    46    47   ar
     6    47    48   ar
     7    48    49   ar
     8    49    50   ar
     9    50    51   ar
    10    51    34    1
    11    34    35    1
    12    35    36    1
    13    36    37    1
    14    37    38    1
    15    38    39    1
    16    39    40    1
    17    39    41    1
    18    41    33    1
    19    33    32    1
    20    32     1    1
    21     1    25    1
    22    25    26   ar
    23    26    27   ar
    24    27    28   ar
    25    28    29   ar
    26    29    30    1
    27    29    31   ar
    28     1     2    1
    29     2     3    1
    30     3     4    1
    31     4     5   am
    32     5     6    2
    33     5     9    1
    34     9    10   ar
    35    10    11   ar
    36    11    17    1
    37    17    18    2
    38    17    19    2
    39    17    20    1
    40    20    22    1
    41    22    23    1
    42    23    24    1
    43    11    12   ar
    44    12    13    1
    45    12    14   ar
    46    14    15   ar
    47    15    16    1
    48     4     7    1
    49     7     8    1
    50    51    43   ar
    51    40    34    1
    52     8     1    1
    53    50    45   ar
    54    41    36    1
    55    31    25   ar
    56    15     9   ar
    57    24    22    1
    58    20    21    1
@<TRIPOS>MOLECULE
*****
 51 58 0 0 0
SMALL
GASTEIGER

@<TRIPOS>ATOM
      1 C         140.5841  141.3759  161.2549 C.3     1  UNL1        0.0236
      2 C         141.7443  140.6164  160.6829 C.3     1  UNL1        0.0257
      3 C         141.5806  139.8467  159.4059 C.3     1  UNL1        0.0940
      4 N         140.2567  139.8364  158.7008 N.am    1  UNL1       -0.2760
      5 C         140.0930  139.0667  157.4238 C.2     1  UNL1        0.2499
      6 O         138.7691  139.0564  156.7187 O.2     1  UNL1       -0.2699
      7 C         139.0965  140.5959  159.2728 C.3     1  UNL1        0.0940
      8 C         139.2601  141.3656  160.5497 C.3     1  UNL1        0.0257
      9 C         141.2533  138.3073  156.8520 C.ar    1  UNL1        0.0656
     10 C         141.3418  136.8214  157.0372 C.ar    1  UNL1        0.0276
     11 C         142.5021  136.0620  156.4653 C.ar    1  UNL1        0.1494
     12 C         143.5740  136.7886  155.7082 C.ar    1  UNL1        0.1594
     13 F         144.7343  136.0292  155.1364 F       1  UNL1       -0.2027
     14 C         143.4855  138.2745  155.5230 C.ar    1  UNL1        0.0426
     15 C         142.3252  139.0338  156.0949 C.ar    1  UNL1        0.0643
     16 CL        142.2368  140.5197  155.9096 Cl      1  UNL1       -0.0820
     17 S         142.5905  134.5762  156.6506 S.O2    1  UNL1        0.0623
     18 O         143.3665  134.7803  157.9179 O.2     1  UNL1       -0.1529
     19 O         141.8145  134.3720  155.3832 O.2     1  UNL1       -0.1529
     20 N         142.6790  133.0902  156.8358 N.3     1  UNL1       -0.1807
     21 H         142.2035  132.6654  156.0398 H       1  UNL1        0.1487
     22 C         144.0198  132.4265  156.9440 C.3     1  UNL1        0.0756
     23 C         145.1083  131.5908  156.3382 C.3     1  UNL1        0.0188
     24 C         145.2536  132.1125  157.7370 C.3     1  UNL1        0.0188
     25 C         139.7874  142.2436  162.1837 C.ar    1  UNL1       -0.0204
     26 C         139.3120  141.6975  163.4973 C.ar    1  UNL1       -0.0041
     27 C         138.5154  142.5652  164.4261 C.ar    1  UNL1        0.0020
     28 C         138.1943  143.9790  164.0412 C.ar    1  UNL1        0.0296
     29 C         138.6698  144.5251  162.7275 C.ar    1  UNL1        0.1398
     30 F         138.3487  145.9388  162.3426 F       1  UNL1       -0.2042
     31 C         139.4664  143.6573  161.7988 C.ar    1  UNL1        0.0254
     32 C         141.6313  141.6875  162.2825 C.3     1  UNL1        0.0215
     33 C         142.7889  142.5736  161.9289 C.3     1  UNL1        0.0723
     34 C         142.8794  142.5423  161.8046 C.3     1  UNL1        0.0893
     35 C         142.0669  143.5581  161.0574 C.3     1  UNL1        0.0386
     36 C         142.3737  143.8530  159.6190 C.3     1  UNL1        0.0594
     37 C         143.0101  143.8238  158.2611 C.3     1  UNL1        0.0174
     38 C         144.1255  142.8213  158.2934 C.3     1  UNL1        0.0174
     39 C         144.1784  142.2309  159.6713 C.3     1  UNL1        0.0594
     40 C         143.9986  141.8217  161.1133 C.3     1  UNL1        0.0386
     41 N         143.0957  142.8686  160.4907 N.3     1  UNL1       -0.2751
     42 C         142.2033  144.6543  163.7482 C.3     1  UNL1        0.0718
     43 C         142.2206  143.2574  164.2945 C.ar    1  UNL1        0.1207
     44 N         141.9943  142.5248  165.5836 N.ar    1  UNL1       -0.2309
     45 C         142.2065  141.0619  165.3289 C.ar    1  UNL1        0.0983
     46 C         142.1204  139.8638  166.2273 C.ar    1  UNL1        0.0206
     47 C         142.3918  138.4942  165.6790 C.ar    1  UNL1        0.0016
     48 C         142.7492  138.3227  164.2323 C.ar    1  UNL1        0.0016
     49 C         142.8352  139.5208  163.3339 C.ar    1  UNL1        0.0188
     50 C         142.5639  140.8904  163.8822 C.ar    1  UNL1        0.0785
     51 N         142.5726  142.2473  163.2429 N.ar    1  UNL1       -0.3167
@<TRIPOS>BOND
     1    42    43    1
     2    43    44   ar
     3    44    45   ar
     4    45    46   ar
     5    46    47   ar
     6    47    48   ar
     7    48    49   ar
     8    49    50   ar
     9    50    51   ar
    10    51    34    1
    11    34    35    1
    12    35    36    1
    13    36    37    1
    14    37    38    1
    15    38    39    1
    16    39    40    1
    17    39    41    1
    18    41    33    1
    19    33    32    1
    20    32     1    1
    21     1    25    1
    22    25    26   ar
    23    26    27   ar
    24    27    28   ar
    25    28    29   ar
    26    29    30    1
    27    29    31   ar
    28     1     2    1
    29     2     3    1
    30     3     4    1
    31     4     5   am
    32     5     6    2
    33     5     9    1
    34     9    10   ar
    35    10    11   ar
    36    11    17    1
    37    17    18    2
    38    17    19    2
    39    17    20    1
    40    20    22    1
    41    22    23    1
    42    23    24    1
    43    11    12   ar
    44    12    13    1
    45    12    14   ar
    46    14    15   ar
    47    15    16    1
    48     4     7    1
    49     7     8    1
    50    51    43   ar
    51    40    34    1
    52     8     1    1
    53    50    45   ar
    54    41    36    1
    55    31    25   ar
    56    15     9   ar
    57    24    22    1
    58    20    21    1
@<TRIPOS>MOLECULE
*****
 51 58 0 0 0
SMALL
GASTEIGER

@<TRIPOS>ATOM
      1 C         139.9248  140.0684  162.3474 C.3     1  UNL1        0.0236
      2 C         140.6092  141.1850  161.6161 C.3     1  UNL1        0.0257
      3 C         140.3965  141.3570  160.1412 C.3     1  UNL1        0.0940
      4 N         139.4993  140.4124  159.3977 N.am    1  UNL1       -0.2760
      5 C         139.2865  140.5844  157.9228 C.2     1  UNL1        0.2499
      6 O         138.3893  139.6398  157.1793 O.2     1  UNL1       -0.2699
      7 C         138.8149  139.2958  160.1290 C.3     1  UNL1        0.0940
      8 C         139.0276  139.1238  161.6038 C.3     1  UNL1        0.0257
      9 C         139.9710  141.7010  157.1916 C.ar    1  UNL1        0.0656
     10 C         139.2359  142.9794  156.9171 C.ar    1  UNL1        0.0276
     11 C         139.9205  144.0960  156.1859 C.ar    1  UNL1        0.1494
     12 C         141.3401  143.9341  155.7291 C.ar    1  UNL1        0.1594
     13 F         142.0245  145.0507  154.9978 F       1  UNL1       -0.2027
     14 C         142.0751  142.6556  156.0035 C.ar    1  UNL1        0.0426
     15 C         141.3905  141.5391  156.7348 C.ar    1  UNL1        0.0643
     16 CL        142.1256  140.2607  157.0093 Cl      1  UNL1       -0.0820
     17 S         139.1855  145.3744  155.9114 S.O2    1  UNL1        0.0623
     18 O         138.5132  144.7349  154.7328 O.2     1  UNL1       -0.1529
     19 O         139.8577  146.0139  157.0900 O.2     1  UNL1       -0.1529
     20 N         138.4504  146.6528  155.6369 N.3     1  UNL1       -0.1807
     21 H         138.1232  147.0035  156.5371 H       1  UNL1        0.1487
     22 C         139.1531  147.7911  154.9582 C.3     1  UNL1        0.0756
     23 C         139.3364  149.2651  154.7490 C.3     1  UNL1        0.0188
     24 C         140.1870  148.2885  153.9921 C.3     1  UNL1        0.0188
     25 C         139.5008  139.1716  163.4727 C.ar    1  UNL1       -0.0204
     26 C         139.9416  137.7381  163.4962 C.ar    1  UNL1       -0.0041
     27 C         139.5176  136.8414  164.6214 C.ar    1  UNL1        0.0020
     28 C         138.6527  137.3783  165.7231 C.ar    1  UNL1        0.0296
     29 C         138.2119  138.8119  165.6996 C.ar    1  UNL1        0.1398
     30 F         137.3470  139.3487  166.8012 F       1  UNL1       -0.2042
     31 C         138.6359  139.7085  164.5743 C.ar    1  UNL1        0.0254
     32 C         140.6747  140.7015  163.4817 C.3     1  UNL1        0.0215
     33 C         142.1612  140.5301  163.5864 C.3     1  UNL1        0.0723
     34 C         142.2503  140.5501  163.4587 C.3     1  UNL1        0.0893
     35 C         142.2921  139.0546  163.3501 C.3     1  UNL1        0.0386
     36 C         143.0528  138.4048  162.2325 C.3     1  UNL1        0.0594
     37 C         143.8971  138.2045  161.0089 C.3     1  UNL1        0.0174
     38 C         144.2879  139.5561  160.4891 C.3     1  UNL1        0.0174
     39 C         143.6853  140.5919  161.3914 C.3     1  UNL1        0.0594
     40 C         142.9691  141.3957  162.4498 C.3     1  UNL1        0.0386
     41 N         142.9219  139.8803  162.4689 N.3     1  UNL1       -0.2751
     42 C         142.0738  139.3690  166.1549 C.3     1  UNL1        0.0718
     43 C         141.3492  140.6696  165.9725 C.ar    1  UNL1        0.1207
     44 N         140.5085  141.6361  166.7530 N.ar    1  UNL1       -0.2309
     45 C         140.1294  142.7637  165.8393 C.ar    1  UNL1        0.0983
     46 C         139.3104  144.0011  166.0585 C.ar    1  UNL1        0.0206
     47 C         139.0977  144.9689  164.9325 C.ar    1  UNL1        0.0016
     48 C         139.7041  144.6993  163.5872 C.ar    1  UNL1        0.0016
     49 C         140.5230  143.4620  163.3680 C.ar    1  UNL1        0.0188
     50 C         140.7357  142.4941  164.4941 C.ar    1  UNL1        0.0785
     51 N         141.4896  141.1999  164.5764 N.ar    1  UNL1       -0.3167
@<TRIPOS>BOND
     1    42    43    1
     2    43    44   ar
     3    44    45   ar
     4    45    46   ar
     5    46    47   ar
     6    47    48   ar
     7    48    49   ar
     8    49    50   ar
     9    50    51   ar
    10    51    34    1
    11    34    35    1
    12    35    36    1
    13    36    37    1
    14    37    38    1
    15    38    39    1
    16    39    40    1
    17    39    41    1
    18    41    33    1
    19    33    32    1
    20    32     1    1
    21     1    25    1
    22    25    26   ar
    23    26    27   ar
    24    27    28   ar
    25    28    29   ar
    26    29    30    1
    27    29    31   ar
    28     1     2    1
    29     2     3    1
    30     3     4    1
    31     4     5   am
    32     5     6    2
    33     5     9    1
    34     9    10   ar
    35    10    11   ar
    36    11    17    1
    37    17    18    2
    38    17    19    2
    39    17    20    1
    40    20    22    1
    41    22    23    1
    42    23    24    1
    43    11    12   ar
    44    12    13    1
    45    12    14   ar
    46    14    15   ar
    47    15    16    1
    48     4     7    1
    49     7     8    1
    50    51    43   ar
    51    40    34    1
    52     8     1    1
    53    50    45   ar
    54    41    36    1
    55    31    25   ar
    56    15     9   ar
    57    24    22    1
    58    20    21    1
@<TRIPOS>MOLECULE
*****
 51 58 0 0 0
SMALL
GASTEIGER

@<TRIPOS>ATOM
      1 C         140.8821  141.5406  160.2337 C.3     1  UNL1        0.0236
      2 C         140.5524  140.1007  159.9731 C.3     1  UNL1        0.0257
      3 C         141.0567  139.4289  158.7303 C.3     1  UNL1        0.0940
      4 N         141.8906  140.1971  157.7482 N.am    1  UNL1       -0.2760
      5 C         142.3948  139.5253  156.5054 C.2     1  UNL1        0.2499
      6 O         143.2288  140.2934  155.5233 O.2     1  UNL1       -0.2699
      7 C         142.2203  141.6370  158.0089 C.3     1  UNL1        0.0940
      8 C         141.7161  142.3087  159.2515 C.3     1  UNL1        0.0257
      9 C         142.0651  138.0854  156.2448 C.ar    1  UNL1        0.0656
     10 C         143.0243  137.0093  156.6596 C.ar    1  UNL1        0.0276
     11 C         142.6945  135.5694  156.3990 C.ar    1  UNL1        0.1494
     12 C         141.4055  135.2056  155.7235 C.ar    1  UNL1        0.1594
     13 F         141.0758  133.7657  155.4629 F       1  UNL1       -0.2027
     14 C         140.4463  136.2816  155.3087 C.ar    1  UNL1        0.0426
     15 C         140.7761  137.7215  155.5693 C.ar    1  UNL1        0.0643
     16 CL        139.8170  138.7976  155.1545 Cl      1  UNL1       -0.0820
     17 S         143.6536  134.4933  156.8138 S.O2    1  UNL1        0.0623
     18 O         143.2663  134.7010  158.2480 O.2     1  UNL1       -0.1529
     19 O         144.0409  134.2857  155.3796 O.2     1  UNL1       -0.1529
     20 N         144.6128  133.4172  157.2287 N.3     1  UNL1       -0.1807
     21 H         144.5948  133.3837  158.2480 H       1  UNL1        0.1487
     22 C         144.4166  132.0107  156.7457 C.3     1  UNL1        0.0756
     23 C         144.7907  130.8908  155.8206 C.3     1  UNL1        0.0188
     24 C         143.7026  130.6946  156.8342 C.3     1  UNL1        0.0188
     25 C         140.9277  142.8747  160.9180 C.ar    1  UNL1       -0.0204
     26 C         139.7086  143.7483  160.9400 C.ar    1  UNL1       -0.0041
     27 C         139.7542  145.0825  161.6243 C.ar    1  UNL1        0.0020
     28 C         141.0190  145.5428  162.2865 C.ar    1  UNL1        0.0296
     29 C         142.2381  144.6692  162.2644 C.ar    1  UNL1        0.1398
     30 F         143.5028  145.1296  162.9265 F       1  UNL1       -0.2042
     31 C         142.1924  143.3351  161.5801 C.ar    1  UNL1        0.0254
     32 C         140.0641  141.2358  161.4534 C.3     1  UNL1        0.0215
     33 C         140.5867  140.2843  162.4886 C.3     1  UNL1        0.0723
     34 C         140.6487  140.1464  162.4465 C.3     1  UNL1        0.0893
     35 C         141.9929  140.7956  162.5943 C.3     1  UNL1        0.0386
     36 C         143.2403  140.0068  162.3263 C.3     1  UNL1        0.0594
     37 C         144.1696  138.8843  161.9709 C.3     1  UNL1        0.0174
     38 C         143.3377  137.6792  161.6456 C.3     1  UNL1        0.0174
     39 C         141.8943  138.0570  161.7999 C.3     1  UNL1        0.0594
     40 C         140.5521  138.7084  162.0308 C.3     1  UNL1        0.0386
     41 N         141.8341  139.4956  162.2206 N.3     1  UNL1       -0.2751
     42 C         138.0771  139.5422  161.1361 C.3     1  UNL1        0.0718
     43 C         138.0568  140.6964  162.0938 C.ar    1  UNL1        0.1207
     44 N         137.1040  141.7149  162.6460 N.ar    1  UNL1       -0.2309
     45 C         137.8597  142.5831  163.6079 C.ar    1  UNL1        0.0983
     46 C         137.4383  143.7502  164.4507 C.ar    1  UNL1        0.0206
     47 C         138.4368  144.4353  165.3359 C.ar    1  UNL1        0.0016
     48 C         139.8566  143.9534  165.3782 C.ar    1  UNL1        0.0016
     49 C         140.2780  142.7863  164.5354 C.ar    1  UNL1        0.0188
     50 C         139.2795  142.1012  163.6503 C.ar    1  UNL1        0.0785
     51 N         139.4013  140.9352  162.7145 N.ar    1  UNL1       -0.3167
@<TRIPOS>BOND
     1    42    43    1
     2    43    44   ar
     3    44    45   ar
     4    45    46   ar
     5    46    47   ar
     6    47    48   ar
     7    48    49   ar
     8    49    50   ar
     9    50    51   ar
    10    51    34    1
    11    34    35    1
    12    35    36    1
    13    36    37    1
    14    37    38    1
    15    38    39    1
    16    39    40    1
    17    39    41    1
    18    41    33    1
    19    33    32    1
    20    32     1    1
    21     1    25    1
    22    25    26   ar
    23    26    27   ar
    24    27    28   ar
    25    28    29   ar
    26    29    30    1
    27    29    31   ar
    28     1     2    1
    29     2     3    1
    30     3     4    1
    31     4     5   am
    32     5     6    2
    33     5     9    1
    34     9    10   ar
    35    10    11   ar
    36    11    17    1
    37    17    18    2
    38    17    19    2
    39    17    20    1
    40    20    22    1
    41    22    23    1
    42    23    24    1
    43    11    12   ar
    44    12    13    1
    45    12    14   ar
    46    14    15   ar
    47    15    16    1
    48     4     7    1
    49     7     8    1
    50    51    43   ar
    51    40    34    1
    52     8     1    1
    53    50    45   ar
    54    41    36    1
    55    31    25   ar
    56    15     9   ar
    57    24    22    1
    58    20    21    1
@<TRIPOS>MOLECULE
*****
 51 58 0 0 0
SMALL
GASTEIGER

@<TRIPOS>ATOM
      1 C         140.1978  141.9740  160.9805 C.3     1  UNL1        0.0236
      2 C         141.3425  141.7457  160.0384 C.3     1  UNL1        0.0257
      3 C         141.1045  141.0763  158.7172 C.3     1  UNL1        0.0940
      4 N         139.7218  140.6353  158.3382 N.am    1  UNL1       -0.2760
      5 C         139.4837  139.9660  157.0171 C.2     1  UNL1        0.2499
      6 O         138.1010  139.5250  156.6381 O.2     1  UNL1       -0.2699
      7 C         138.5771  140.8637  159.2804 C.3     1  UNL1        0.0940
      8 C         138.8151  141.5330  160.6014 C.3     1  UNL1        0.0257
      9 C         140.6284  139.7377  156.0750 C.ar    1  UNL1        0.0656
     10 C         141.4363  138.4773  156.1679 C.ar    1  UNL1        0.0276
     11 C         142.5811  138.2491  155.2258 C.ar    1  UNL1        0.1494
     12 C         142.9178  139.2813  154.1908 C.ar    1  UNL1        0.1594
     13 F         144.0626  139.0531  153.2487 F       1  UNL1       -0.2027
     14 C         142.1099  140.5417  154.0980 C.ar    1  UNL1        0.0426
     15 C         140.9652  140.7699  155.0401 C.ar    1  UNL1        0.0643
     16 CL        140.1573  142.0304  154.9472 Cl      1  UNL1       -0.0820
     17 S         143.3890  136.9887  155.3186 S.O2    1  UNL1        0.0623
     18 O         142.3333  136.2551  154.5457 O.2     1  UNL1       -0.1529
     19 O         144.4446  137.7223  156.0916 O.2     1  UNL1       -0.1529
     20 N         144.1969  135.7282  155.4115 N.3     1  UNL1       -0.1807
     21 H         145.1200  135.9947  155.7540 H       1  UNL1        0.1487
     22 C         143.7245  134.5966  156.2753 C.3     1  UNL1        0.0756
     23 C         143.7205  133.8839  157.5952 C.3     1  UNL1        0.0188
     24 C         142.9103  133.3493  156.4517 C.3     1  UNL1        0.0188
     25 C         139.4422  142.4078  162.2016 C.ar    1  UNL1       -0.0204
     26 C         138.4819  143.5573  162.1203 C.ar    1  UNL1       -0.0041
     27 C         137.7263  143.9910  163.3413 C.ar    1  UNL1        0.0020
     28 C         137.9309  143.2753  164.6436 C.ar    1  UNL1        0.0296
     29 C         138.8912  142.1258  164.7248 C.ar    1  UNL1        0.1398
     30 F         139.0958  141.4101  166.0270 F       1  UNL1       -0.2042
     31 C         139.6468  141.6921  163.5037 C.ar    1  UNL1        0.0254
     32 C         141.3181  142.5656  161.7835 C.3     1  UNL1        0.0215
     33 C         141.9756  143.8359  161.3315 C.3     1  UNL1        0.0723
     34 C         142.0140  143.8542  161.1804 C.3     1  UNL1        0.0893
     35 C         140.7674  144.6774  161.0452 C.3     1  UNL1        0.0386
     36 C         140.4057  145.2786  159.7193 C.3     1  UNL1        0.0594
     37 C         140.4420  145.6638  158.2701 C.3     1  UNL1        0.0174
     38 C         141.6726  145.0602  157.6607 C.3     1  UNL1        0.0174
     39 C         142.3969  144.3020  158.7333 C.3     1  UNL1        0.0594
     40 C         142.8989  143.6321  159.9898 C.3     1  UNL1        0.0386
     41 N         141.6139  144.4369  160.0057 N.3     1  UNL1       -0.2751
     42 C         141.3441  145.1472  163.7445 C.3     1  UNL1        0.0718
     43 C         142.0745  143.8415  163.8527 C.ar    1  UNL1        0.1207
     44 N         142.6147  142.9100  164.8969 N.ar    1  UNL1       -0.2309
     45 C         143.2499  141.7459  164.1959 C.ar    1  UNL1        0.0983
     46 C         143.9437  140.5203  164.7121 C.ar    1  UNL1        0.0206
     47 C         144.4897  139.5067  163.7507 C.ar    1  UNL1        0.0016
     48 C         144.3420  139.7187  162.2731 C.ar    1  UNL1        0.0016
     49 C         143.6482  140.9443  161.7569 C.ar    1  UNL1        0.0188
     50 C         143.1022  141.9579  162.7183 C.ar    1  UNL1        0.0785
     51 N         142.3757  143.2531  162.5062 N.ar    1  UNL1       -0.3167
@<TRIPOS>BOND
     1    42    43    1
     2    43    44   ar
     3    44    45   ar
     4    45    46   ar
     5    46    47   ar
     6    47    48   ar
     7    48    49   ar
     8    49    50   ar
     9    50    51   ar
    10    51    34    1
    11    34    35    1
    12    35    36    1
    13    36    37    1
    14    37    38    1
    15    38    39    1
    16    39    40    1
    17    39    41    1
    18    41    33    1
    19    33    32    1
    20    32     1    1
    21     1    25    1
    22    25    26   ar
    23    26    27   ar
    24    27    28   ar
    25    28    29   ar
    26    29    30    1
    27    29    31   ar
    28     1     2    1
    29     2     3    1
    30     3     4    1
    31     4     5   am
    32     5     6    2
    33     5     9    1
    34     9    10   ar
    35    10    11   ar
    36    11    17    1
    37    17    18    2
    38    17    19    2
    39    17    20    1
    40    20    22    1
    41    22    23    1
    42    23    24    1
    43    11    12   ar
    44    12    13    1
    45    12    14   ar
    46    14    15   ar
    47    15    16    1
    48     4     7    1
    49     7     8    1
    50    51    43   ar
    51    40    34    1
    52     8     1    1
    53    50    45   ar
    54    41    36    1
    55    31    25   ar
    56    15     9   ar
    57    24    22    1
    58    20    21    1
@<TRIPOS>MOLECULE
*****
 51 58 0 0 0
SMALL
GASTEIGER

@<TRIPOS>ATOM
      1 C         140.7951  141.2173  161.0670 C.3     1  UNL1        0.0236
      2 C         140.2866  139.9625  160.4213 C.3     1  UNL1        0.0257
      3 C         141.0682  139.3187  159.3146 C.3     1  UNL1        0.0940
      4 N         142.3583  139.9296  158.8538 N.am    1  UNL1       -0.2760
      5 C         143.1399  139.2857  157.7472 C.2     1  UNL1        0.2499
      6 O         144.4300  139.8966  157.2863 O.2     1  UNL1       -0.2699
      7 C         142.8668  141.1843  159.4996 C.3     1  UNL1        0.0940
      8 C         142.0853  141.8282  160.6061 C.3     1  UNL1        0.0257
      9 C         142.6313  138.0310  157.1015 C.ar    1  UNL1        0.0656
     10 C         143.3051  136.7195  157.3769 C.ar    1  UNL1        0.0276
     11 C         142.7964  135.4648  156.7311 C.ar    1  UNL1        0.1494
     12 C         141.6140  135.5216  155.8099 C.ar    1  UNL1        0.1594
     13 F         141.1054  134.2669  155.1642 F       1  UNL1       -0.2027
     14 C         140.9402  136.8331  155.5345 C.ar    1  UNL1        0.0426
     15 C         141.4489  138.0878  156.1802 C.ar    1  UNL1        0.0643
     16 CL        140.7751  139.3994  155.9048 Cl      1  UNL1       -0.0820
     17 S         143.4702  134.1532  157.0066 S.O2    1  UNL1        0.0623
     18 O         143.2941  134.3722  158.4800 O.2     1  UNL1       -0.1529
     19 O         143.6464  133.9343  155.5332 O.2     1  UNL1       -0.1529
     20 N         144.1440  132.8416  157.2821 N.3     1  UNL1       -0.1807
     21 H         143.8637  132.5581  158.2210 H       1  UNL1        0.1487
     22 C         143.8953  131.6672  156.3827 C.3     1  UNL1        0.0756
     23 C         144.3929  130.6762  155.3726 C.3     1  UNL1        0.0188
     24 C         142.9669  130.6242  155.8350 C.3     1  UNL1        0.0188
     25 C         140.8639  142.4029  161.9834 C.ar    1  UNL1       -0.0204
     26 C         141.1901  142.2111  163.4348 C.ar    1  UNL1       -0.0041
     27 C         141.2589  143.3967  164.3512 C.ar    1  UNL1        0.0020
     28 C         141.0015  144.7741  163.8159 C.ar    1  UNL1        0.0296
     29 C         140.6754  144.9659  162.3644 C.ar    1  UNL1        0.1398
     30 F         140.4180  146.3433  161.8293 F       1  UNL1       -0.2042
     31 C         140.6066  143.7803  161.4482 C.ar    1  UNL1        0.0254
     32 C         139.5289  141.0181  161.8461 C.3     1  UNL1        0.0215
     33 C         138.1998  141.2353  161.1855 C.3     1  UNL1        0.0723
     34 C         138.1676  141.1712  161.0458 C.3     1  UNL1        0.0893
     35 C         138.5165  142.5005  160.4446 C.3     1  UNL1        0.0386
     36 C         138.4400  142.6951  158.9592 C.3     1  UNL1        0.0594
     37 C         138.2292  142.4406  157.4961 C.3     1  UNL1        0.0174
     38 C         137.7821  141.0181  157.3328 C.3     1  UNL1        0.0174
     39 C         137.7167  140.3934  158.6949 C.3     1  UNL1        0.0594
     40 C         137.7422  140.0367  160.1617 C.3     1  UNL1        0.0386
     41 N         138.1233  141.4299  159.7002 N.3     1  UNL1       -0.2751
     42 C         137.5159  143.3153  162.9626 C.3     1  UNL1        0.0718
     43 C         137.9313  142.0096  163.5730 C.ar    1  UNL1        0.1207
     44 N         138.1407  141.3862  164.9212 N.ar    1  UNL1       -0.2309
     45 C         138.5828  139.9681  164.7126 C.ar    1  UNL1        0.0983
     46 C         138.9354  138.8746  165.6769 C.ar    1  UNL1        0.0206
     47 C         139.3520  137.5280  165.1641 C.ar    1  UNL1        0.0016
     48 C         139.4159  137.2749  163.6870 C.ar    1  UNL1        0.0016
     49 C         139.0632  138.3684  162.7227 C.ar    1  UNL1        0.0188
     50 C         138.6467  139.7150  163.2355 C.ar    1  UNL1        0.0785
     51 N         138.2440  140.9767  162.5312 N.ar    1  UNL1       -0.3167
@<TRIPOS>BOND
     1    42    43    1
     2    43    44   ar
     3    44    45   ar
     4    45    46   ar
     5    46    47   ar
     6    47    48   ar
     7    48    49   ar
     8    49    50   ar
     9    50    51   ar
    10    51    34    1
    11    34    35    1
    12    35    36    1
    13    36    37    1
    14    37    38    1
    15    38    39    1
    16    39    40    1
    17    39    41    1
    18    41    33    1
    19    33    32    1
    20    32     1    1
    21     1    25    1
    22    25    26   ar
    23    26    27   ar
    24    27    28   ar
    25    28    29   ar
    26    29    30    1
    27    29    31   ar
    28     1     2    1
    29     2     3    1
    30     3     4    1
    31     4     5   am
    32     5     6    2
    33     5     9    1
    34     9    10   ar
    35    10    11   ar
    36    11    17    1
    37    17    18    2
    38    17    19    2
    39    17    20    1
    40    20    22    1
    41    22    23    1
    42    23    24    1
    43    11    12   ar
    44    12    13    1
    45    12    14   ar
    46    14    15   ar
    47    15    16    1
    48     4     7    1
    49     7     8    1
    50    51    43   ar
    51    40    34    1
    52     8     1    1
    53    50    45   ar
    54    41    36    1
    55    31    25   ar
    56    15     9   ar
    57    24    22    1
    58    20    21    1
@<TRIPOS>MOLECULE
*****
 51 58 0 0 0
SMALL
GASTEIGER

@<TRIPOS>ATOM
      1 C         140.1116  140.5804  161.7958 C.3     1  UNL1        0.0236
      2 C         140.8379  141.5181  160.8776 C.3     1  UNL1        0.0257
      3 C         140.2487  141.8674  159.5431 C.3     1  UNL1        0.0940
      4 N         138.9333  141.2788  159.1268 N.am    1  UNL1       -0.2760
      5 C         138.3442  141.6281  157.7922 C.2     1  UNL1        0.2499
      6 O         137.0288  141.0395  157.3759 O.2     1  UNL1       -0.2699
      7 C         138.2071  140.3411  160.0450 C.3     1  UNL1        0.0940
      8 C         138.7961  139.9919  161.3795 C.3     1  UNL1        0.0257
      9 C         139.0705  142.5658  156.8741 C.ar    1  UNL1        0.0656
     10 C         138.7794  144.0365  156.9205 C.ar    1  UNL1        0.0276
     11 C         139.5058  144.9742  156.0022 C.ar    1  UNL1        0.1494
     12 C         140.5233  144.4412  155.0376 C.ar    1  UNL1        0.1594
     13 F         141.2497  145.3789  154.1195 F       1  UNL1       -0.2027
     14 C         140.8145  142.9705  154.9912 C.ar    1  UNL1        0.0426
     15 C         140.0881  142.0328  155.9094 C.ar    1  UNL1        0.0643
     16 CL        140.3793  140.5620  155.8630 Cl      1  UNL1       -0.0820
     17 S         139.2146  146.4450  156.0487 S.O2    1  UNL1        0.0623
     18 O         140.3195  146.6322  157.0457 O.2     1  UNL1       -0.1529
     19 O         138.1097  146.2577  155.0516 O.2     1  UNL1       -0.1529
     20 N         138.9235  147.9158  156.0951 N.3     1  UNL1       -0.1807
     21 H         139.3620  148.2761  156.9426 H       1  UNL1        0.1487
     22 C         139.3635  148.8033  154.9688 C.3     1  UNL1        0.0756
     23 C         139.5139  150.1735  154.3772 C.3     1  UNL1        0.0188
     24 C         139.9754  148.9703  153.6095 C.3     1  UNL1        0.0188
     25 C         139.8051  139.7464  163.0044 C.ar    1  UNL1       -0.0204
     26 C         138.6974  140.1490  163.9322 C.ar    1  UNL1       -0.0041
     27 C         138.3910  139.3150  165.1408 C.ar    1  UNL1        0.0020
     28 C         139.1923  138.0784  165.4215 C.ar    1  UNL1        0.0296
     29 C         140.3001  137.6758  164.4936 C.ar    1  UNL1        0.1398
     30 F         141.1013  136.4393  164.7744 F       1  UNL1       -0.2042
     31 C         140.6064  138.5099  163.2851 C.ar    1  UNL1        0.0254
     32 C         141.3205  140.8792  162.6318 C.3     1  UNL1        0.0215
     33 C         141.5130  142.2503  163.2092 C.3     1  UNL1        0.0723
     34 C         141.4872  142.3803  163.1250 C.3     1  UNL1        0.0893
     35 C         140.1289  142.4262  163.7601 C.3     1  UNL1        0.0386
     36 C         139.1739  143.5284  163.4094 C.3     1  UNL1        0.0594
     37 C         138.5799  144.7571  162.7869 C.3     1  UNL1        0.0174
     38 C         139.5968  145.3405  161.8512 C.3     1  UNL1        0.0174
     39 C         140.8193  144.4725  161.8955 C.3     1  UNL1        0.0594
     40 C         141.8903  143.4367  162.1395 C.3     1  UNL1        0.0386
     41 N         140.5580  143.3525  162.8586 N.3     1  UNL1       -0.2751
     42 C         143.5327  141.3948  161.2435 C.3     1  UNL1        0.0718
     43 C         143.5090  140.7183  162.5821 C.ar    1  UNL1        0.1207
     44 N         144.2242  139.6363  163.3356 N.ar    1  UNL1       -0.2309
     45 C         143.5993  139.5273  164.6949 C.ar    1  UNL1        0.0983
     46 C         143.8909  138.6353  165.8650 C.ar    1  UNL1        0.0206
     47 C         143.0812  138.7579  167.1217 C.ar    1  UNL1        0.0016
     48 C         141.9799  139.7726  167.2083 C.ar    1  UNL1        0.0016
     49 C         141.6883  140.6646  166.0382 C.ar    1  UNL1        0.0188
     50 C         142.4980  140.5420  164.7815 C.ar    1  UNL1        0.0785
     51 N         142.4422  141.2780  163.4757 N.ar    1  UNL1       -0.3167
@<TRIPOS>BOND
     1    42    43    1
     2    43    44   ar
     3    44    45   ar
     4    45    46   ar
     5    46    47   ar
     6    47    48   ar
     7    48    49   ar
     8    49    50   ar
     9    50    51   ar
    10    51    34    1
    11    34    35    1
    12    35    36    1
    13    36    37    1
    14    37    38    1
    15    38    39    1
    16    39    40    1
    17    39    41    1
    18    41    33    1
    19    33    32    1
    20    32     1    1
    21     1    25    1
    22    25    26   ar
    23    26    27   ar
    24    27    28   ar
    25    28    29   ar
    26    29    30    1
    27    29    31   ar
    28     1     2    1
    29     2     3    1
    30     3     4    1
    31     4     5   am
    32     5     6    2
    33     5     9    1
    34     9    10   ar
    35    10    11   ar
    36    11    17    1
    37    17    18    2
    38    17    19    2
    39    17    20    1
    40    20    22    1
    41    22    23    1
    42    23    24    1
    43    11    12   ar
    44    12    13    1
    45    12    14   ar
    46    14    15   ar
    47    15    16    1
    48     4     7    1
    49     7     8    1
    50    51    43   ar
    51    40    34    1
    52     8     1    1
    53    50    45   ar
    54    41    36    1
    55    31    25   ar
    56    15     9   ar
    57    24    22    1
    58    20    21    1
@<TRIPOS>MOLECULE
*****
 51 58 0 0 0
SMALL
GASTEIGER

@<TRIPOS>ATOM
      1 C         140.3057  140.9426  161.3142 C.3     1  UNL1        0.0236
      2 C         141.4828  140.1868  160.7727 C.3     1  UNL1        0.0257
      3 C         141.3983  139.5312  159.4262 C.3     1  UNL1        0.0940
      4 N         140.1366  139.6313  158.6212 N.am    1  UNL1       -0.2760
      5 C         140.0521  138.9757  157.2747 C.2     1  UNL1        0.2499
      6 O         138.7904  139.0758  156.4696 O.2     1  UNL1       -0.2699
      7 C         138.9595  140.3871  159.1626 C.3     1  UNL1        0.0940
      8 C         139.0440  141.0427  160.5090 C.3     1  UNL1        0.0257
      9 C         141.2293  138.2199  156.7333 C.ar    1  UNL1        0.0656
     10 C         141.3201  136.7351  156.9255 C.ar    1  UNL1        0.0276
     11 C         142.4973  135.9794  156.3841 C.ar    1  UNL1        0.1494
     12 C         143.5837  136.7086  155.6505 C.ar    1  UNL1        0.1594
     13 F         144.7609  135.9528  155.1092 F       1  UNL1       -0.2027
     14 C         143.4929  138.1934  155.4584 C.ar    1  UNL1        0.0426
     15 C         142.3156  138.9491  155.9998 C.ar    1  UNL1        0.0643
     16 CL        142.2248  140.4340  155.8076 Cl      1  UNL1       -0.0820
     17 S         142.5881  134.4945  156.5762 S.O2    1  UNL1        0.0623
     18 O         143.3461  134.7062  157.8532 O.2     1  UNL1       -0.1529
     19 O         141.8301  134.2829  155.2993 O.2     1  UNL1       -0.1529
     20 N         142.6790  133.0096  156.7685 N.3     1  UNL1       -0.1807
     21 H         142.2216  132.5801  155.9643 H       1  UNL1        0.1487
     22 C         144.0201  132.3519  156.9061 C.3     1  UNL1        0.0756
     23 C         145.1617  131.5903  156.3007 C.3     1  UNL1        0.0188
     24 C         145.2012  131.9744  157.7501 C.3     1  UNL1        0.0188
     25 C         139.4653  141.7625  162.2478 C.ar    1  UNL1       -0.0204
     26 C         138.2805  141.1445  162.9290 C.ar    1  UNL1       -0.0041
     27 C         137.4401  141.9644  163.8626 C.ar    1  UNL1        0.0020
     28 C         137.7847  143.4023  164.1149 C.ar    1  UNL1        0.0296
     29 C         138.9696  144.0203  163.4337 C.ar    1  UNL1        0.1398
     30 F         139.3141  145.4582  163.6860 F       1  UNL1       -0.2042
     31 C         139.8099  143.2003  162.5001 C.ar    1  UNL1        0.0254
     32 C         141.2755  141.1272  162.4434 C.3     1  UNL1        0.0215
     33 C         141.5819  139.9828  163.3636 C.3     1  UNL1        0.0723
     34 C         141.4784  139.9595  163.4793 C.3     1  UNL1        0.0893
     35 C         141.0094  138.7601  162.7100 C.3     1  UNL1        0.0386
     36 C         139.8957  137.9119  163.2488 C.3     1  UNL1        0.0594
     37 C         138.8051  137.3819  164.1318 C.3     1  UNL1        0.0174
     38 C         138.7036  138.2771  165.3311 C.3     1  UNL1        0.0174
     39 C         139.7314  139.3604  165.1893 C.3     1  UNL1        0.0594
     40 C         140.8336  140.3106  164.7872 C.3     1  UNL1        0.0386
     41 N         140.4682  139.1347  163.9023 N.3     1  UNL1       -0.2751
     42 C         143.5697  138.8879  161.6978 C.3     1  UNL1        0.0718
     43 C         143.6926  140.3449  162.0323 C.ar    1  UNL1        0.1207
     44 N         144.5814  141.5187  161.7459 N.ar    1  UNL1       -0.2309
     45 C         144.0303  142.7069  162.4770 C.ar    1  UNL1        0.0983
     46 C         144.4892  144.1321  162.5659 C.ar    1  UNL1        0.0206
     47 C         143.7186  145.1179  163.3931 C.ar    1  UNL1        0.0016
     48 C         142.4891  144.6784  164.1315 C.ar    1  UNL1        0.0016
     49 C         142.0302  143.2531  164.0426 C.ar    1  UNL1        0.0188
     50 C         142.8008  142.2674  163.2154 C.ar    1  UNL1        0.0785
     51 N         142.5921  140.8076  162.9405 N.ar    1  UNL1       -0.3167
@<TRIPOS>BOND
     1    42    43    1
     2    43    44   ar
     3    44    45   ar
     4    45    46   ar
     5    46    47   ar
     6    47    48   ar
     7    48    49   ar
     8    49    50   ar
     9    50    51   ar
    10    51    34    1
    11    34    35    1
    12    35    36    1
    13    36    37    1
    14    37    38    1
    15    38    39    1
    16    39    40    1
    17    39    41    1
    18    41    33    1
    19    33    32    1
    20    32     1    1
    21     1    25    1
    22    25    26   ar
    23    26    27   ar
    24    27    28   ar
    25    28    29   ar
    26    29    30    1
    27    29    31   ar
    28     1     2    1
    29     2     3    1
    30     3     4    1
    31     4     5   am
    32     5     6    2
    33     5     9    1
    34     9    10   ar
    35    10    11   ar
    36    11    17    1
    37    17    18    2
    38    17    19    2
    39    17    20    1
    40    20    22    1
    41    22    23    1
    42    23    24    1
    43    11    12   ar
    44    12    13    1
    45    12    14   ar
    46    14    15   ar
    47    15    16    1
    48     4     7    1
    49     7     8    1
    50    51    43   ar
    51    40    34    1
    52     8     1    1
    53    50    45   ar
    54    41    36    1
    55    31    25   ar
    56    15     9   ar
    57    24    22    1
    58    20    21    1
@<TRIPOS>MOLECULE
*****
 51 58 0 0 0
SMALL
GASTEIGER

@<TRIPOS>ATOM
      1 C         141.8792  141.2404  161.8250 C.3     1  UNL1        0.0236
      2 C         140.8021  140.6193  160.9860 C.3     1  UNL1        0.0257
      3 C         141.1423  140.0143  159.6562 C.3     1  UNL1        0.0940
      4 N         142.5597  140.0305  159.1655 N.am    1  UNL1       -0.2760
      5 C         142.8999  139.4256  157.8357 C.2     1  UNL1        0.2499
      6 O         144.3173  139.4418  157.3449 O.2     1  UNL1       -0.2699
      7 C         143.6368  140.6517  160.0045 C.3     1  UNL1        0.0940
      8 C         143.2966  141.2566  161.3342 C.3     1  UNL1        0.0257
      9 C         141.8228  138.8044  156.9967 C.ar    1  UNL1        0.0656
     10 C         140.7632  139.6669  156.3775 C.ar    1  UNL1        0.0276
     11 C         139.6860  139.0457  155.5386 C.ar    1  UNL1        0.1494
     12 C         139.6685  137.5620  155.3188 C.ar    1  UNL1        0.1594
     13 F         138.5913  136.9408  154.4798 F       1  UNL1       -0.2027
     14 C         140.7280  136.6995  155.9380 C.ar    1  UNL1        0.0426
     15 C         141.8052  137.3207  156.7769 C.ar    1  UNL1        0.0643
     16 CL        142.8648  136.4582  157.3961 Cl      1  UNL1       -0.0820
     17 S         138.6265  139.9082  154.9194 S.O2    1  UNL1        0.0623
     18 O         139.5502  140.2257  153.7810 O.2     1  UNL1       -0.1529
     19 O         137.7028  139.5907  156.0578 O.2     1  UNL1       -0.1529
     20 N         137.5669  140.7708  154.3001 N.3     1  UNL1       -0.1807
     21 H         136.6728  140.3143  154.4808 H       1  UNL1        0.1487
     22 C         137.4179  142.2002  154.7296 C.3     1  UNL1        0.0756
     23 C         136.6011  143.2887  155.3605 C.3     1  UNL1        0.0188
     24 C         137.9766  143.5876  154.8424 C.3     1  UNL1        0.0188
     25 C         142.5444  141.9404  162.9730 C.ar    1  UNL1       -0.0204
     26 C         142.7669  141.2146  164.2666 C.ar    1  UNL1       -0.0041
     27 C         143.4320  141.9146  165.4146 C.ar    1  UNL1        0.0020
     28 C         143.8747  143.3404  165.2686 C.ar    1  UNL1        0.0296
     29 C         143.6523  144.0661  163.9749 C.ar    1  UNL1        0.1398
     30 F         144.0950  145.4918  163.8290 F       1  UNL1       -0.2042
     31 C         142.9871  143.3661  162.8270 C.ar    1  UNL1        0.0254
     32 C         140.6929  141.4673  162.7144 C.3     1  UNL1        0.0215
     33 C         139.6173  142.4271  162.2998 C.3     1  UNL1        0.0723
     34 C         139.5586  142.4221  162.1543 C.3     1  UNL1        0.0893
     35 C         140.4669  143.5724  161.8344 C.3     1  UNL1        0.0386
     36 C         140.4765  144.1590  160.4539 C.3     1  UNL1        0.0594
     37 C         140.1633  144.4113  159.0089 C.3     1  UNL1        0.0174
     38 C         139.1202  143.4219  158.5811 C.3     1  UNL1        0.0174
     39 C         138.7886  142.5582  159.7618 C.3     1  UNL1        0.0594
     40 C         138.6601  141.8587  161.0936 C.3     1  UNL1        0.0386
     41 N         139.6269  143.0138  160.9194 N.3     1  UNL1       -0.2751
     42 C         139.9836  144.0527  164.5742 C.3     1  UNL1        0.0718
     43 C         139.7558  142.5897  164.8147 C.ar    1  UNL1        0.1207
     44 N         139.6655  141.6119  165.9486 N.ar    1  UNL1       -0.2309
     45 C         139.4029  140.2534  165.3694 C.ar    1  UNL1        0.0983
     46 C         139.2200  138.9084  166.0078 C.ar    1  UNL1        0.0206
     47 C         138.9652  137.7016  165.1542 C.ar    1  UNL1        0.0016
     48 C         138.8932  137.8397  163.6623 C.ar    1  UNL1        0.0016
     49 C         139.0760  139.1847  163.0240 C.ar    1  UNL1        0.0188
     50 C         139.3309  140.3915  163.8776 C.ar    1  UNL1        0.0785
     51 N         139.5490  141.8355  163.5347 N.ar    1  UNL1       -0.3167
@<TRIPOS>BOND
     1    42    43    1
     2    43    44   ar
     3    44    45   ar
     4    45    46   ar
     5    46    47   ar
     6    47    48   ar
     7    48    49   ar
     8    49    50   ar
     9    50    51   ar
    10    51    34    1
    11    34    35    1
    12    35    36    1
    13    36    37    1
    14    37    38    1
    15    38    39    1
    16    39    40    1
    17    39    41    1
    18    41    33    1
    19    33    32    1
    20    32     1    1
    21     1    25    1
    22    25    26   ar
    23    26    27   ar
    24    27    28   ar
    25    28    29   ar
    26    29    30    1
    27    29    31   ar
    28     1     2    1
    29     2     3    1
    30     3     4    1
    31     4     5   am
    32     5     6    2
    33     5     9    1
    34     9    10   ar
    35    10    11   ar
    36    11    17    1
    37    17    18    2
    38    17    19    2
    39    17    20    1
    40    20    22    1
    41    22    23    1
    42    23    24    1
    43    11    12   ar
    44    12    13    1
    45    12    14   ar
    46    14    15   ar
    47    15    16    1
    48     4     7    1
    49     7     8    1
    50    51    43   ar
    51    40    34    1
    52     8     1    1
    53    50    45   ar
    54    41    36    1
    55    31    25   ar
    56    15     9   ar
    57    24    22    1
    58    20    21    1
