@<TRIPOS>MOLECULE
*****
 34 39 0 0 0
SMALL
GASTEIGER

@<TRIPOS>ATOM
      1 F         143.7262  142.6050  168.3991 F       1  UNL1       -0.1816
      2 C         142.4047  142.0407  168.8294 C.ar    1  UNL1        0.2382
      3 N         141.8815  142.3224  170.2067 N.ar    1  UNL1       -0.2152
      4 C         140.5600  141.7581  170.6369 C.ar    1  UNL1        0.1014
      5 C         139.7617  140.9120  169.6900 C.ar    1  UNL1        0.0224
      6 C         140.2849  140.6302  168.3127 C.ar    1  UNL1        0.0256
      7 C         139.7255  139.8365  167.1694 C.ar    1  UNL1        0.0550
      8 C         138.4537  139.0561  167.0167 C.ar    1  UNL1        0.1048
      9 N         138.1576  138.3495  165.7271 N.ar    1  UNL1       -0.2119
     10 C         139.1333  138.4233  164.5903 C.ar    1  UNL1        0.2231
     11 N         140.4052  139.2037  164.7430 N.ar    1  UNL1       -0.1961
     12 C         140.7013  139.9103  166.0326 C.ar    1  UNL1        0.1482
     13 N         141.8637  140.7496  166.4733 N.ar    1  UNL1       -0.3114
     14 C         141.6064  141.1946  167.8825 C.ar    1  UNL1        0.1076
     15 C         143.0715  141.0852  165.6494 C.3     1  UNL1        0.0870
     16 C         144.0297  140.1003  165.0478 C.3     1  UNL1        0.0226
     17 C         145.0835  140.8709  164.3091 C.3     1  UNL1        0.0020
     18 C         144.7766  142.3320  164.4540 C.3     1  UNL1        0.0020
     19 C         143.5331  142.4643  165.2824 C.3     1  UNL1        0.0226
     20 N         138.8372  137.7166  163.3007 N.pl3   1  UNL1       -0.2679
     21 H         138.0653  137.1087  163.2384 H       1  UNL1        0.1565
     22 C         139.7172  137.9363  162.1060 C.ar    1  UNL1        0.1344
     23 C         139.1589  138.5798  160.8714 C.ar    1  UNL1        0.0358
     24 C         140.0389  138.7994  159.6766 C.ar    1  UNL1        0.0190
     25 C         141.4772  138.3756  159.7165 C.ar    1  UNL1        0.0675
     26 C         142.0355  137.7321  160.9511 C.ar    1  UNL1        0.1147
     27 N         141.1555  137.5125  162.1459 N.ar    1  UNL1       -0.2277
     28 N         142.3573  138.5952  158.5218 N.pl3   1  UNL1       -0.3035
     29 C         143.1261  139.8755  158.3819 C.3     1  UNL1        0.1079
     30 C         144.0062  140.0952  157.1872 C.3     1  UNL1        0.0903
     31 N         144.1173  139.0345  156.1325 N.3     1  UNL1       -0.2946
     32 C         143.3485  137.7542  156.2724 C.3     1  UNL1        0.0903
     33 C         142.4685  137.5345  157.4670 C.3     1  UNL1        0.1079
     34 H         145.1035  138.7808  156.0729 H       1  UNL1        0.1233
@<TRIPOS>BOND
     1     1     2    1
     2     2     3   ar
     3     3     4   ar
     4     4     5   ar
     5     5     6   ar
     6     6     7   ar
     7     7     8   ar
     8     8     9   ar
     9     9    10   ar
    10    10    20    1
    11    20    22    1
    12    22    23   ar
    13    23    24   ar
    14    24    25   ar
    15    25    28    1
    16    28    29    1
    17    29    30    1
    18    30    31    1
    19    31    32    1
    20    32    33    1
    21    25    26   ar
    22    26    27   ar
    23    10    11   ar
    24    11    12   ar
    25    12    13   ar
    26    13    15    1
    27    15    16    1
    28    16    17    1
    29    17    18    1
    30    18    19    1
    31    13    14   ar
    32    14     2   ar
    33    14     6   ar
    34    12     7   ar
    35    19    15    1
    36    27    22   ar
    37    33    28    1
    38    20    21    1
    39    31    34    1
@<TRIPOS>MOLECULE
*****
 34 39 0 0 0
SMALL
GASTEIGER

@<TRIPOS>ATOM
      1 F         143.8183  142.6111  168.2558 F       1  UNL1       -0.1816
      2 C         142.4865  142.1036  168.7236 C.ar    1  UNL1        0.2382
      3 N         141.9775  142.4767  170.0843 N.ar    1  UNL1       -0.2152
      4 C         140.6458  141.9691  170.5521 C.ar    1  UNL1        0.1014
      5 C         139.8231  141.0884  169.6591 C.ar    1  UNL1        0.0224
      6 C         140.3320  140.7153  168.2984 C.ar    1  UNL1        0.0256
      7 C         139.7483  139.8699  167.2054 C.ar    1  UNL1        0.0550
      8 C         138.4580  139.1118  167.1035 C.ar    1  UNL1        0.1048
      9 N         138.1386  138.3388  165.8583 N.ar    1  UNL1       -0.2119
     10 C         139.1095  138.3239  164.7150 C.ar    1  UNL1        0.2231
     11 N         140.3998  139.0821  164.8169 N.ar    1  UNL1       -0.1961
     12 C         140.7192  139.8551  166.0621 C.ar    1  UNL1        0.1482
     13 N         141.9030  140.6912  166.4485 N.ar    1  UNL1       -0.3114
     14 C         141.6638  141.2229  167.8306 C.ar    1  UNL1        0.1076
     15 C         143.1136  140.9503  165.6016 C.3     1  UNL1        0.0870
     16 C         143.6137  142.2959  165.1666 C.3     1  UNL1        0.0226
     17 C         144.8458  142.0865  164.3371 C.3     1  UNL1        0.0020
     18 C         145.1072  140.6115  164.2593 C.3     1  UNL1        0.0020
     19 C         144.0366  139.9094  165.0409 C.3     1  UNL1        0.0226
     20 N         138.7902  137.5509  163.4698 N.pl3   1  UNL1       -0.2679
     21 H         138.6090  136.5847  163.5231 H       1  UNL1        0.1565
     22 C         138.7468  138.2501  162.1435 C.ar    1  UNL1        0.1344
     23 C         137.7520  139.3474  161.9063 C.ar    1  UNL1        0.0358
     24 C         137.7086  140.0466  160.5799 C.ar    1  UNL1        0.0190
     25 C         138.6600  139.6485  159.4907 C.ar    1  UNL1        0.0675
     26 C         139.6548  138.5512  159.7279 C.ar    1  UNL1        0.1147
     27 N         139.6982  137.8520  161.0543 N.ar    1  UNL1       -0.2277
     28 N         138.6167  140.3477  158.1643 N.pl3   1  UNL1       -0.3035
     29 C         138.9781  139.6044  156.9126 C.3     1  UNL1        0.1079
     30 C         138.9348  140.3036  155.5862 C.3     1  UNL1        0.0903
     31 N         138.5300  141.7459  155.5116 N.3     1  UNL1       -0.2946
     32 C         138.1686  142.4892  156.7633 C.3     1  UNL1        0.0903
     33 C         138.2119  141.7901  158.0897 C.3     1  UNL1        0.1079
     34 H         137.7176  141.7923  154.8966 H       1  UNL1        0.1233
@<TRIPOS>BOND
     1     1     2    1
     2     2     3   ar
     3     3     4   ar
     4     4     5   ar
     5     5     6   ar
     6     6     7   ar
     7     7     8   ar
     8     8     9   ar
     9     9    10   ar
    10    10    20    1
    11    20    22    1
    12    22    23   ar
    13    23    24   ar
    14    24    25   ar
    15    25    28    1
    16    28    29    1
    17    29    30    1
    18    30    31    1
    19    31    32    1
    20    32    33    1
    21    25    26   ar
    22    26    27   ar
    23    10    11   ar
    24    11    12   ar
    25    12    13   ar
    26    13    15    1
    27    15    16    1
    28    16    17    1
    29    17    18    1
    30    18    19    1
    31    13    14   ar
    32    14     2   ar
    33    14     6   ar
    34    12     7   ar
    35    19    15    1
    36    27    22   ar
    37    33    28    1
    38    20    21    1
    39    31    34    1
@<TRIPOS>MOLECULE
*****
 34 39 0 0 0
SMALL
GASTEIGER

@<TRIPOS>ATOM
      1 F         141.3473  145.5860  159.6604 F       1  UNL1       -0.1816
      2 C         140.4276  144.5889  159.0201 C.ar    1  UNL1        0.2382
      3 N         139.9555  144.8002  157.6121 N.ar    1  UNL1       -0.2152
      4 C         139.0358  143.8031  156.9718 C.ar    1  UNL1        0.1014
      5 C         138.5882  142.5948  157.7395 C.ar    1  UNL1        0.0224
      6 C         139.0602  142.3835  159.1475 C.ar    1  UNL1        0.0256
      7 C         138.7894  141.2958  160.1443 C.ar    1  UNL1        0.0550
      8 C         137.9550  140.0515  160.0703 C.ar    1  UNL1        0.1048
      9 N         137.8729  139.1321  161.2526 N.ar    1  UNL1       -0.2119
     10 C         138.6252  139.4569  162.5090 C.ar    1  UNL1        0.2231
     11 N         139.4596  140.7012  162.5830 N.ar    1  UNL1       -0.1961
     12 C         139.5418  141.6206  161.4007 C.ar    1  UNL1        0.1482
     13 N         140.2775  142.9091  161.1803 N.ar    1  UNL1       -0.3114
     14 C         139.9799  143.3805  159.7878 C.ar    1  UNL1        0.1076
     15 C         141.1566  143.6041  162.1774 C.3     1  UNL1        0.0870
     16 C         142.6042  143.3070  162.4346 C.3     1  UNL1        0.0226
     17 C         143.0847  144.2374  163.5085 C.3     1  UNL1        0.0020
     18 C         141.9340  145.1096  163.9152 C.3     1  UNL1        0.0020
     19 C         140.7424  144.7181  163.0924 C.3     1  UNL1        0.0226
     20 N         138.5431  138.5375  163.6914 N.pl3   1  UNL1       -0.2679
     21 H         138.0949  137.6651  163.6063 H       1  UNL1        0.1565
     22 C         139.1438  138.9474  165.0032 C.ar    1  UNL1        0.1344
     23 C         138.2603  139.1779  166.1933 C.ar    1  UNL1        0.0358
     24 C         138.8611  139.5879  167.5053 C.ar    1  UNL1        0.0190
     25 C         140.3453  139.7672  167.6271 C.ar    1  UNL1        0.0675
     26 C         141.2288  139.5367  166.4370 C.ar    1  UNL1        0.1147
     27 N         140.6280  139.1268  165.1250 N.ar    1  UNL1       -0.2277
     28 N         140.9461  140.1771  168.9390 N.pl3   1  UNL1       -0.3035
     29 C         142.2622  139.6032  169.3730 C.3     1  UNL1        0.1079
     30 C         142.8630  140.0131  170.6849 C.3     1  UNL1        0.0903
     31 N         142.1477  140.9969  171.5626 N.3     1  UNL1       -0.2946
     32 C         140.8316  141.5708  171.1285 C.3     1  UNL1        0.0903
     33 C         140.2308  141.1609  169.8167 C.3     1  UNL1        0.1079
     34 H         142.7814  141.7843  171.6997 H       1  UNL1        0.1233
@<TRIPOS>BOND
     1     1     2    1
     2     2     3   ar
     3     3     4   ar
     4     4     5   ar
     5     5     6   ar
     6     6     7   ar
     7     7     8   ar
     8     8     9   ar
     9     9    10   ar
    10    10    20    1
    11    20    22    1
    12    22    23   ar
    13    23    24   ar
    14    24    25   ar
    15    25    28    1
    16    28    29    1
    17    29    30    1
    18    30    31    1
    19    31    32    1
    20    32    33    1
    21    25    26   ar
    22    26    27   ar
    23    10    11   ar
    24    11    12   ar
    25    12    13   ar
    26    13    15    1
    27    15    16    1
    28    16    17    1
    29    17    18    1
    30    18    19    1
    31    13    14   ar
    32    14     2   ar
    33    14     6   ar
    34    12     7   ar
    35    19    15    1
    36    27    22   ar
    37    33    28    1
    38    20    21    1
    39    31    34    1
@<TRIPOS>MOLECULE
*****
 34 39 0 0 0
SMALL
GASTEIGER

@<TRIPOS>ATOM
      1 F         137.7272  138.5629  165.9601 F       1  UNL1       -0.1816
      2 C         138.7238  139.4519  166.6431 C.ar    1  UNL1        0.2382
      3 N         138.7744  139.5098  168.1411 N.ar    1  UNL1       -0.2152
      4 C         139.7709  140.3989  168.8241 C.ar    1  UNL1        0.1014
      5 C         140.7169  141.2300  168.0091 C.ar    1  UNL1        0.0224
      6 C         140.6664  141.1720  166.5111 C.ar    1  UNL1        0.0256
      7 C         141.4660  141.8713  165.4520 C.ar    1  UNL1        0.0550
      8 C         142.5867  142.8651  165.5328 C.ar    1  UNL1        0.1048
      9 N         143.2051  143.4020  164.2761 N.ar    1  UNL1       -0.2119
     10 C         142.7027  142.9451  162.9386 C.ar    1  UNL1        0.2231
     11 N         141.5821  141.9514  162.8578 N.ar    1  UNL1       -0.1961
     12 C         140.9637  141.4145  164.1145 C.ar    1  UNL1        0.1482
     13 N         139.8536  140.4329  164.3470 N.ar    1  UNL1       -0.3114
     14 C         139.6698  140.2830  165.8281 C.ar    1  UNL1        0.1076
     15 C         139.0656  139.7253  163.2847 C.3     1  UNL1        0.0870
     16 C         139.1157  138.2573  162.9804 C.3     1  UNL1        0.0226
     17 C         138.1702  137.9862  161.8479 C.3     1  UNL1        0.0020
     18 C         137.5357  139.2865  161.4523 C.3     1  UNL1        0.0020
     19 C         138.0891  140.3613  162.3404 C.3     1  UNL1        0.0226
     20 N         143.3211  143.4820  161.6818 N.pl3   1  UNL1       -0.2679
     21 H         144.3008  143.5282  161.5960 H       1  UNL1        0.1565
     22 C         142.4468  143.9487  160.5559 C.ar    1  UNL1        0.1344
     23 C         141.1644  144.6687  160.8509 C.ar    1  UNL1        0.0358
     24 C         140.2901  145.1353  159.7249 C.ar    1  UNL1        0.0190
     25 C         140.6982  144.8820  158.3039 C.ar    1  UNL1        0.0675
     26 C         141.9805  144.1619  158.0088 C.ar    1  UNL1        0.1147
     27 N         142.8549  143.6953  159.1349 N.ar    1  UNL1       -0.2277
     28 N         139.8239  145.3486  157.1778 N.pl3   1  UNL1       -0.3035
     29 C         139.0287  144.3546  156.3843 C.3     1  UNL1        0.1079
     30 C         138.1544  144.8212  155.2583 C.3     1  UNL1        0.0903
     31 N         138.0754  146.2817  154.9259 N.3     1  UNL1       -0.2946
     32 C         138.8706  147.2757  155.7194 C.3     1  UNL1        0.0903
     33 C         139.7448  146.8091  156.8454 C.3     1  UNL1        0.1079
     34 H         137.0955  146.5511  155.0138 H       1  UNL1        0.1233
@<TRIPOS>BOND
     1     1     2    1
     2     2     3   ar
     3     3     4   ar
     4     4     5   ar
     5     5     6   ar
     6     6     7   ar
     7     7     8   ar
     8     8     9   ar
     9     9    10   ar
    10    10    20    1
    11    20    22    1
    12    22    23   ar
    13    23    24   ar
    14    24    25   ar
    15    25    28    1
    16    28    29    1
    17    29    30    1
    18    30    31    1
    19    31    32    1
    20    32    33    1
    21    25    26   ar
    22    26    27   ar
    23    10    11   ar
    24    11    12   ar
    25    12    13   ar
    26    13    15    1
    27    15    16    1
    28    16    17    1
    29    17    18    1
    30    18    19    1
    31    13    14   ar
    32    14     2   ar
    33    14     6   ar
    34    12     7   ar
    35    19    15    1
    36    27    22   ar
    37    33    28    1
    38    20    21    1
    39    31    34    1
@<TRIPOS>MOLECULE
*****
 34 39 0 0 0
SMALL
GASTEIGER

@<TRIPOS>ATOM
      1 F         137.7919  141.0428  158.6440 F       1  UNL1       -0.1816
      2 C         138.8213  139.9966  158.3346 C.ar    1  UNL1        0.2382
      3 N         138.7354  139.2142  157.0578 N.ar    1  UNL1       -0.2152
      4 C         139.7648  138.1680  156.7484 C.ar    1  UNL1        0.1014
      5 C         140.8802  137.9041  157.7160 C.ar    1  UNL1        0.0224
      6 C         140.9662  138.6865  158.9929 C.ar    1  UNL1        0.0256
      7 C         141.9439  138.6479  160.1298 C.ar    1  UNL1        0.0550
      8 C         143.1665  137.8138  160.3743 C.ar    1  UNL1        0.1048
      9 N         143.9639  138.0022  161.6307 N.ar    1  UNL1       -0.2119
     10 C         143.5388  139.0245  162.6427 C.ar    1  UNL1        0.2231
     11 N         142.3163  139.8586  162.3982 N.ar    1  UNL1       -0.1961
     12 C         141.5188  139.6702  161.1417 C.ar    1  UNL1        0.1482
     13 N         140.2783  140.3407  160.6303 N.ar    1  UNL1       -0.3114
     14 C         139.9367  139.7327  159.3022 C.ar    1  UNL1        0.1076
     15 C         139.5136  141.4282  161.3249 C.3     1  UNL1        0.0870
     16 C         138.1714  141.2829  161.9786 C.3     1  UNL1        0.0226
     17 C         137.7851  142.6168  162.5455 C.3     1  UNL1        0.0020
     18 C         138.8885  143.5866  162.2421 C.3     1  UNL1        0.0020
     19 C         139.9568  142.8519  161.4877 C.3     1  UNL1        0.0226
     20 N         144.3362  139.2129  163.8991 N.pl3   1  UNL1       -0.2679
     21 H         145.2940  138.9853  163.9131 H       1  UNL1        0.1565
     22 C         143.6744  139.7479  165.1343 C.ar    1  UNL1        0.1344
     23 C         143.2138  138.8055  166.2065 C.ar    1  UNL1        0.0358
     24 C         142.5519  139.3406  167.4417 C.ar    1  UNL1        0.0190
     25 C         142.3507  140.8181  167.6047 C.ar    1  UNL1        0.0675
     26 C         142.8114  141.7605  166.5325 C.ar    1  UNL1        0.1147
     27 N         143.4732  141.2254  165.2972 N.ar    1  UNL1       -0.2277
     28 N         141.6889  141.3532  168.8398 N.pl3   1  UNL1       -0.3035
     29 C         141.7198  140.5583  170.1115 C.3     1  UNL1        0.1079
     30 C         141.0580  141.0934  171.3467 C.3     1  UNL1        0.0903
     31 N         140.3652  142.4233  171.3101 N.3     1  UNL1       -0.2946
     32 C         140.3343  143.2181  170.0384 C.3     1  UNL1        0.0903
     33 C         140.9961  142.6831  168.8033 C.3     1  UNL1        0.1079
     34 H         140.8159  143.0094  172.0128 H       1  UNL1        0.1233
@<TRIPOS>BOND
     1     1     2    1
     2     2     3   ar
     3     3     4   ar
     4     4     5   ar
     5     5     6   ar
     6     6     7   ar
     7     7     8   ar
     8     8     9   ar
     9     9    10   ar
    10    10    20    1
    11    20    22    1
    12    22    23   ar
    13    23    24   ar
    14    24    25   ar
    15    25    28    1
    16    28    29    1
    17    29    30    1
    18    30    31    1
    19    31    32    1
    20    32    33    1
    21    25    26   ar
    22    26    27   ar
    23    10    11   ar
    24    11    12   ar
    25    12    13   ar
    26    13    15    1
    27    15    16    1
    28    16    17    1
    29    17    18    1
    30    18    19    1
    31    13    14   ar
    32    14     2   ar
    33    14     6   ar
    34    12     7   ar
    35    19    15    1
    36    27    22   ar
    37    33    28    1
    38    20    21    1
    39    31    34    1
@<TRIPOS>MOLECULE
*****
 34 39 0 0 0
SMALL
GASTEIGER

@<TRIPOS>ATOM
      1 F         144.0277  142.8263  168.1150 F       1  UNL1       -0.1816
      2 C         143.0205  141.8381  168.6239 C.ar    1  UNL1        0.2382
      3 N         143.1539  141.2765  170.0084 N.ar    1  UNL1       -0.2152
      4 C         142.1467  140.2884  170.5172 C.ar    1  UNL1        0.1014
      5 C         141.0059  139.8618  169.6416 C.ar    1  UNL1        0.0224
      6 C         140.8724  140.4234  168.2572 C.ar    1  UNL1        0.0256
      7 C         139.8615  140.1922  167.1734 C.ar    1  UNL1        0.0550
      8 C         138.6421  139.3212  167.1076 C.ar    1  UNL1        0.1048
      9 N         137.8051  139.2955  165.8630 N.ar    1  UNL1       -0.2119
     10 C         138.1875  140.1407  164.6843 C.ar    1  UNL1        0.2231
     11 N         139.4070  141.0117  164.7502 N.ar    1  UNL1       -0.1961
     12 C         140.2439  141.0375  165.9947 C.ar    1  UNL1        0.1482
     13 N         141.4913  141.7910  166.3501 N.ar    1  UNL1       -0.3114
     14 C         141.8797  141.4116  167.7483 C.ar    1  UNL1        0.1076
     15 C         142.2219  142.7549  165.4629 C.3     1  UNL1        0.0870
     16 C         141.6076  143.8924  164.7022 C.3     1  UNL1        0.0226
     17 C         142.7011  144.5911  163.9498 C.3     1  UNL1        0.0020
     18 C         143.9914  143.8854  164.2455 C.3     1  UNL1        0.0020
     19 C         143.6951  142.7506  165.1807 C.3     1  UNL1        0.0226
     20 N         137.3506  140.1150  163.4398 N.pl3   1  UNL1       -0.2679
     21 H         136.3828  140.2874  163.4938 H       1  UNL1        0.1565
     22 C         137.9882  139.8265  162.1131 C.ar    1  UNL1        0.1344
     23 C         138.6552  138.5045  161.8732 C.ar    1  UNL1        0.0358
     24 C         139.2928  138.2160  160.5464 C.ar    1  UNL1        0.0190
     25 C         139.2634  139.2495  159.4596 C.ar    1  UNL1        0.0675
     26 C         138.5963  140.5714  159.6995 C.ar    1  UNL1        0.1147
     27 N         137.9587  140.8599  161.0263 N.ar    1  UNL1       -0.2277
     28 N         139.9009  138.9611  158.1328 N.pl3   1  UNL1       -0.3035
     29 C         141.2375  138.2827  158.0747 C.3     1  UNL1        0.1079
     30 C         141.8751  137.9943  156.7480 C.3     1  UNL1        0.0903
     31 N         141.1761  138.3841  155.4794 N.3     1  UNL1       -0.2946
     32 C         139.8396  139.0625  155.5375 C.3     1  UNL1        0.0903
     33 C         139.2020  139.3510  156.8642 C.3     1  UNL1        0.1079
     34 H         141.0490  137.5288  154.9385 H       1  UNL1        0.1233
@<TRIPOS>BOND
     1     1     2    1
     2     2     3   ar
     3     3     4   ar
     4     4     5   ar
     5     5     6   ar
     6     6     7   ar
     7     7     8   ar
     8     8     9   ar
     9     9    10   ar
    10    10    20    1
    11    20    22    1
    12    22    23   ar
    13    23    24   ar
    14    24    25   ar
    15    25    28    1
    16    28    29    1
    17    29    30    1
    18    30    31    1
    19    31    32    1
    20    32    33    1
    21    25    26   ar
    22    26    27   ar
    23    10    11   ar
    24    11    12   ar
    25    12    13   ar
    26    13    15    1
    27    15    16    1
    28    16    17    1
    29    17    18    1
    30    18    19    1
    31    13    14   ar
    32    14     2   ar
    33    14     6   ar
    34    12     7   ar
    35    19    15    1
    36    27    22   ar
    37    33    28    1
    38    20    21    1
    39    31    34    1
@<TRIPOS>MOLECULE
*****
 34 39 0 0 0
SMALL
GASTEIGER

@<TRIPOS>ATOM
      1 F         139.4583  140.2183  169.9075 F       1  UNL1       -0.1816
      2 C         138.9810  139.8660  168.5298 C.ar    1  UNL1        0.2382
      3 N         137.9190  138.8224  168.3481 N.ar    1  UNL1       -0.2152
      4 C         137.4417  138.4700  166.9705 C.ar    1  UNL1        0.1014
      5 C         138.0263  139.1612  165.7745 C.ar    1  UNL1        0.0224
      6 C         139.0883  140.2048  165.9562 C.ar    1  UNL1        0.0256
      7 C         139.8450  141.0485  164.9736 C.ar    1  UNL1        0.0550
      8 C         139.7956  141.1340  163.4769 C.ar    1  UNL1        0.1048
      9 N         140.6912  142.0934  162.7505 N.ar    1  UNL1       -0.2119
     10 C         141.6362  142.9672  163.5208 C.ar    1  UNL1        0.2231
     11 N         141.6856  142.8817  165.0175 N.ar    1  UNL1       -0.1961
     12 C         140.7900  141.9224  165.7439 C.ar    1  UNL1        0.1482
     13 N         140.6173  141.6187  167.2027 N.ar    1  UNL1       -0.3114
     14 C         139.5656  140.5572  167.3339 C.ar    1  UNL1        0.1076
     15 C         141.3651  142.2633  168.3320 C.3     1  UNL1        0.0870
     16 C         140.8038  143.2526  169.3099 C.3     1  UNL1        0.0226
     17 C         141.8972  143.6325  170.2640 C.3     1  UNL1        0.0020
     18 C         143.1342  142.8781  169.8757 C.3     1  UNL1        0.0020
     19 C         142.8052  142.0319  168.6816 C.3     1  UNL1        0.0226
     20 N         142.5318  143.9265  162.7944 N.pl3   1  UNL1       -0.2679
     21 H         142.6645  144.8372  163.1442 H       1  UNL1        0.1565
     22 C         143.2251  143.4983  161.5351 C.ar    1  UNL1        0.1344
     23 C         144.5394  142.7793  161.6098 C.ar    1  UNL1        0.0358
     24 C         145.2328  142.3510  160.3504 C.ar    1  UNL1        0.0190
     25 C         144.6118  142.6419  159.0164 C.ar    1  UNL1        0.0675
     26 C         143.2975  143.3609  158.9416 C.ar    1  UNL1        0.1147
     27 N         142.6041  143.7892  160.2010 N.ar    1  UNL1       -0.2277
     28 N         145.3050  142.2137  157.7570 N.pl3   1  UNL1       -0.3035
     29 C         144.6427  141.2368  156.8313 C.3     1  UNL1        0.1079
     30 C         145.3360  140.8087  155.5719 C.3     1  UNL1        0.0903
     31 N         146.6915  141.3573  155.2383 N.3     1  UNL1       -0.2946
     32 C         147.3539  142.3342  156.1640 C.3     1  UNL1        0.0903
     33 C         146.6607  142.7624  157.4234 C.3     1  UNL1        0.1079
     34 H         146.6073  141.8200  154.3332 H       1  UNL1        0.1233
@<TRIPOS>BOND
     1     1     2    1
     2     2     3   ar
     3     3     4   ar
     4     4     5   ar
     5     5     6   ar
     6     6     7   ar
     7     7     8   ar
     8     8     9   ar
     9     9    10   ar
    10    10    20    1
    11    20    22    1
    12    22    23   ar
    13    23    24   ar
    14    24    25   ar
    15    25    28    1
    16    28    29    1
    17    29    30    1
    18    30    31    1
    19    31    32    1
    20    32    33    1
    21    25    26   ar
    22    26    27   ar
    23    10    11   ar
    24    11    12   ar
    25    12    13   ar
    26    13    15    1
    27    15    16    1
    28    16    17    1
    29    17    18    1
    30    18    19    1
    31    13    14   ar
    32    14     2   ar
    33    14     6   ar
    34    12     7   ar
    35    19    15    1
    36    27    22   ar
    37    33    28    1
    38    20    21    1
    39    31    34    1
@<TRIPOS>MOLECULE
*****
 34 39 0 0 0
SMALL
GASTEIGER

@<TRIPOS>ATOM
      1 F         140.1335  139.5448  168.8800 F       1  UNL1       -0.1816
      2 C         141.2767  140.5156  168.9060 C.ar    1  UNL1        0.2382
      3 N         141.8771  140.9324  170.2158 N.ar    1  UNL1       -0.2152
      4 C         143.0203  141.9032  170.2418 C.ar    1  UNL1        0.1014
      5 C         143.5631  142.4572  168.9579 C.ar    1  UNL1        0.0224
      6 C         142.9627  142.0404  167.6481 C.ar    1  UNL1        0.0256
      7 C         143.2844  142.4157  166.2318 C.ar    1  UNL1        0.0550
      8 C         144.3152  143.3347  165.6465 C.ar    1  UNL1        0.1048
      9 N         144.4017  143.5150  164.1598 N.ar    1  UNL1       -0.2119
     10 C         143.4573  142.7762  163.2586 C.ar    1  UNL1        0.2231
     11 N         142.4264  141.8571  163.8439 N.ar    1  UNL1       -0.1961
     12 C         142.3400  141.6769  165.3306 C.ar    1  UNL1        0.1482
     13 N         141.4347  140.8449  166.1898 N.ar    1  UNL1       -0.3114
     14 C         141.8195  141.0696  167.6221 C.ar    1  UNL1        0.1076
     15 C         140.3372  139.9461  165.7024 C.3     1  UNL1        0.0870
     16 C         140.5193  138.6358  164.9952 C.3     1  UNL1        0.0226
     17 C         139.1596  138.0797  164.6923 C.3     1  UNL1        0.0020
     18 C         138.1370  139.0462  165.2122 C.3     1  UNL1        0.0020
     19 C         138.8649  140.1997  165.8364 C.3     1  UNL1        0.0226
     20 N         143.5437  142.9564  161.7719 N.pl3   1  UNL1       -0.2679
     21 H         143.9126  143.7889  161.3976 H       1  UNL1        0.1565
     22 C         143.0682  141.8683  160.8557 C.ar    1  UNL1        0.1344
     23 C         143.9634  140.7058  160.5438 C.ar    1  UNL1        0.0358
     24 C         143.4877  139.6176  159.6274 C.ar    1  UNL1        0.0190
     25 C         142.1169  139.6918  159.0230 C.ar    1  UNL1        0.0675
     26 C         141.2217  140.8543  159.3349 C.ar    1  UNL1        0.1147
     27 N         141.6973  141.9425  160.2513 N.ar    1  UNL1       -0.2277
     28 N         141.6412  138.6037  158.1067 N.pl3   1  UNL1       -0.3035
     29 C         142.6024  137.5607  157.6187 C.3     1  UNL1        0.1079
     30 C         142.1268  136.4725  156.7024 C.3     1  UNL1        0.0903
     31 N         140.6900  136.4273  156.2741 N.3     1  UNL1       -0.2946
     32 C         139.7288  137.4704  156.7621 C.3     1  UNL1        0.0903
     33 C         140.2044  138.5585  157.6784 C.3     1  UNL1        0.1079
     34 H         140.3218  135.5245  156.5735 H       1  UNL1        0.1233
@<TRIPOS>BOND
     1     1     2    1
     2     2     3   ar
     3     3     4   ar
     4     4     5   ar
     5     5     6   ar
     6     6     7   ar
     7     7     8   ar
     8     8     9   ar
     9     9    10   ar
    10    10    20    1
    11    20    22    1
    12    22    23   ar
    13    23    24   ar
    14    24    25   ar
    15    25    28    1
    16    28    29    1
    17    29    30    1
    18    30    31    1
    19    31    32    1
    20    32    33    1
    21    25    26   ar
    22    26    27   ar
    23    10    11   ar
    24    11    12   ar
    25    12    13   ar
    26    13    15    1
    27    15    16    1
    28    16    17    1
    29    17    18    1
    30    18    19    1
    31    13    14   ar
    32    14     2   ar
    33    14     6   ar
    34    12     7   ar
    35    19    15    1
    36    27    22   ar
    37    33    28    1
    38    20    21    1
    39    31    34    1
@<TRIPOS>MOLECULE
*****
 34 39 0 0 0
SMALL
GASTEIGER

@<TRIPOS>ATOM
      1 F         138.6539  138.9605  167.3074 F       1  UNL1       -0.1816
      2 C         139.7663  139.8353  167.8046 C.ar    1  UNL1        0.2382
      3 N         139.9491  140.0516  169.2776 N.ar    1  UNL1       -0.2152
      4 C         141.0615  140.9264  169.7749 C.ar    1  UNL1        0.1014
      5 C         141.9911  141.5849  168.7992 C.ar    1  UNL1        0.0224
      6 C         141.8084  141.3686  167.3262 C.ar    1  UNL1        0.0256
      7 C         142.5622  141.8818  166.1352 C.ar    1  UNL1        0.0550
      8 C         143.7538  142.7848  166.0145 C.ar    1  UNL1        0.1048
      9 N         144.2990  143.1301  164.6604 N.ar    1  UNL1       -0.2119
     10 C         143.6525  142.5725  163.4270 C.ar    1  UNL1        0.2231
     11 N         142.4609  141.6695  163.5478 N.ar    1  UNL1       -0.1961
     12 C         141.9158  141.3241  164.9019 C.ar    1  UNL1        0.1482
     13 N         140.7624  140.4664  165.3306 N.ar    1  UNL1       -0.3114
     14 C         140.6960  140.4938  166.8289 C.ar    1  UNL1        0.1076
     15 C         139.8376  139.7133  164.4208 C.3     1  UNL1        0.0870
     16 C         138.7422  140.3093  163.5873 C.3     1  UNL1        0.0226
     17 C         138.0735  139.1964  162.8362 C.3     1  UNL1        0.0020
     18 C         138.7557  137.9125  163.2054 C.3     1  UNL1        0.0020
     19 C         139.8460  138.2321  164.1847 C.3     1  UNL1        0.0226
     20 N         144.1977  142.9179  162.0729 N.pl3   1  UNL1       -0.2679
     21 H         145.1637  142.8441  161.8977 H       1  UNL1        0.1565
     22 C         143.2711  143.3756  160.9859 C.ar    1  UNL1        0.1344
     23 C         143.3786  142.7858  159.6109 C.ar    1  UNL1        0.0358
     24 C         142.4519  143.2436  158.5238 C.ar    1  UNL1        0.0190
     25 C         141.4177  144.2912  158.8117 C.ar    1  UNL1        0.0675
     26 C         141.3101  144.8810  160.1867 C.ar    1  UNL1        0.1147
     27 N         142.2368  144.4232  161.2738 N.ar    1  UNL1       -0.2277
     28 N         140.4910  144.7490  157.7247 N.pl3   1  UNL1       -0.3035
     29 C         140.4239  146.2022  157.3590 C.3     1  UNL1        0.1079
     30 C         139.4972  146.6600  156.2720 C.3     1  UNL1        0.0903
     31 N         138.6376  145.6646  155.5507 N.3     1  UNL1       -0.2946
     32 C         138.7047  144.2115  155.9164 C.3     1  UNL1        0.0903
     33 C         139.6313  143.7536  157.0034 C.3     1  UNL1        0.1079
     34 H         138.8774  145.7307  154.5615 H       1  UNL1        0.1233
@<TRIPOS>BOND
     1     1     2    1
     2     2     3   ar
     3     3     4   ar
     4     4     5   ar
     5     5     6   ar
     6     6     7   ar
     7     7     8   ar
     8     8     9   ar
     9     9    10   ar
    10    10    20    1
    11    20    22    1
    12    22    23   ar
    13    23    24   ar
    14    24    25   ar
    15    25    28    1
    16    28    29    1
    17    29    30    1
    18    30    31    1
    19    31    32    1
    20    32    33    1
    21    25    26   ar
    22    26    27   ar
    23    10    11   ar
    24    11    12   ar
    25    12    13   ar
    26    13    15    1
    27    15    16    1
    28    16    17    1
    29    17    18    1
    30    18    19    1
    31    13    14   ar
    32    14     2   ar
    33    14     6   ar
    34    12     7   ar
    35    19    15    1
    36    27    22   ar
    37    33    28    1
    38    20    21    1
    39    31    34    1
