@<TRIPOS>MOLECULE
*****
 39 44 0 0 0
SMALL
GASTEIGER

@<TRIPOS>ATOM
      1 C         137.8035  142.8686  163.3085 C.3     1  UNL1        0.0932
      2 C         137.7175  141.6974  164.2416 C.3     1  UNL1        0.0286
      3 C         137.7447  140.3003  163.6962 C.3     1  UNL1        0.0193
      4 C         137.8579  140.0745  162.2176 C.3     1  UNL1        0.0700
      5 C         137.9439  141.2458  161.2844 C.3     1  UNL1        0.0193
      6 C         137.9167  142.6429  161.8299 C.3     1  UNL1        0.0286
      7 C         137.8469  140.8583  162.4696 C.3     1  UNL1        0.1562
      8 O         137.8222  142.1216  162.9628 O.3     1  UNL1       -0.3572
      9 N         137.8852  138.6775  161.6722 N.3     1  UNL1       -0.2926
     10 H         137.2984  138.6757  160.8378 H       1  UNL1        0.1236
     11 C         139.1908  138.0490  161.2846 C.3     1  UNL1        0.1152
     12 C         140.4004  138.2374  162.1515 C.ar    1  UNL1        0.0765
     13 C         140.5614  137.4241  163.4015 C.ar    1  UNL1        0.0193
     14 C         141.7710  137.6124  164.2683 C.ar    1  UNL1        0.0411
     15 C         142.8196  138.6141  163.8851 C.ar    1  UNL1        0.1708
     16 C         142.6587  139.4275  162.6350 C.ar    1  UNL1        0.1682
     17 N         141.4491  139.2391  161.7682 N.ar    1  UNL1       -0.2304
     18 N         143.7074  140.4292  162.2518 N.am    1  UNL1       -0.2639
     19 C         144.9170  140.6176  163.1187 C.2     1  UNL1        0.2718
     20 O         145.9656  141.6193  162.7355 O.2     1  UNL1       -0.2707
     21 C         145.0779  139.8043  164.3687 C.3     1  UNL1        0.2898
     22 O         144.0292  138.8025  164.7519 O.3     1  UNL1       -0.4628
     23 H         143.6018  140.9630  161.4314 H       1  UNL1        0.1565
     24 C         137.7762  144.2657  163.8540 C.3     1  UNL1        0.0319
     25 C         138.9450  144.7888  164.6350 C.3     1  UNL1        0.0305
     26 C         142.4197  143.9562  162.9078 C.ar    1  UNL1        0.2247
     27 C         141.0504  144.5246  163.1359 C.ar    1  UNL1        0.0549
     28 C         140.3143  144.2204  164.4069 C.ar    1  UNL1        0.0018
     29 C         140.9475  143.3479  165.4499 C.ar    1  UNL1        0.0982
     30 N         140.2114  143.0438  166.7210 N.ar    1  UNL1       -0.2105
     31 C         140.8446  142.1712  167.7639 C.ar    1  UNL1        0.2250
     32 C         142.2139  141.6029  167.5358 C.ar    1  UNL1        0.0593
     33 C         142.9500  141.9070  166.2648 C.ar    1  UNL1        0.0255
     34 C         142.3168  142.7795  165.2218 C.ar    1  UNL1        0.1019
     35 N         143.0529  143.0837  163.9507 N.ar    1  UNL1       -0.2102
     36 C         142.8881  143.4506  160.4028 C.3     1  UNL1        0.2542
     37 O         143.1558  144.2604  161.6366 O.3     1  UNL1       -0.4561
     38 O         140.1085  141.8671  169.0351 O.3     1  UNL1       -0.4561
     39 C         139.5304  140.5011  169.2585 C.3     1  UNL1        0.2542
@<TRIPOS>BOND
     1    36    37    1
     2    37    26    1
     3    26    27   ar
     4    27    28   ar
     5    28    25    1
     6    25    24    1
     7    24     1    1
     8     1     2    1
     9     2     3    1
    10     3     4    1
    11     4     9    1
    12     9    11    1
    13    11    12    1
    14    12    13   ar
    15    13    14   ar
    16    14    15   ar
    17    15    16   ar
    18    16    17   ar
    19    16    18    1
    20    18    19   am
    21    19    20    2
    22    19    21    1
    23    21    22    1
    24     4     5    1
    25     5     6    1
    26     4     7    1
    27     7     8    1
    28    28    29   ar
    29    29    30   ar
    30    30    31   ar
    31    31    38    1
    32    38    39    1
    33    31    32   ar
    34    32    33   ar
    35    33    34   ar
    36    34    35   ar
    37    35    26   ar
    38     6     1    1
    39    34    29   ar
    40     8     1    1
    41    17    12   ar
    42    22    15    1
    43     9    10    1
    44    18    23    1
@<TRIPOS>MOLECULE
*****
 39 44 0 0 0
SMALL
GASTEIGER

@<TRIPOS>ATOM
      1 C         141.8016  138.1296  164.2167 C.3     1  UNL1        0.0932
      2 C         142.8829  138.4472  165.2066 C.3     1  UNL1        0.0286
      3 C         144.0910  139.2241  164.7742 C.3     1  UNL1        0.0193
      4 C         144.2178  139.6834  163.3519 C.3     1  UNL1        0.0700
      5 C         143.1364  139.3658  162.3620 C.3     1  UNL1        0.0193
      6 C         141.9283  138.5889  162.7944 C.3     1  UNL1        0.0286
      7 C         143.5373  139.2605  163.5419 C.3     1  UNL1        0.1562
      8 O         142.4449  138.5580  163.9329 O.3     1  UNL1       -0.3572
      9 N         145.4258  140.4603  162.9195 N.3     1  UNL1       -0.2926
     10 H         145.4849  140.3724  161.9050 H       1  UNL1        0.1236
     11 C         145.5288  141.9233  163.2340 C.3     1  UNL1        0.1152
     12 C         144.3185  142.8020  163.1200 C.ar    1  UNL1        0.0765
     13 C         143.6423  143.3116  164.3581 C.ar    1  UNL1        0.0193
     14 C         142.4320  144.1903  164.2440 C.ar    1  UNL1        0.0411
     15 C         141.8979  144.5594  162.8918 C.ar    1  UNL1        0.1708
     16 C         142.5742  144.0499  161.6536 C.ar    1  UNL1        0.1682
     17 N         143.7845  143.1711  161.7677 N.ar    1  UNL1       -0.2304
     18 N         142.0401  144.4190  160.3014 N.am    1  UNL1       -0.2639
     19 C         140.8298  145.2977  160.1873 C.2     1  UNL1        0.2718
     20 O         140.2958  145.6669  158.8351 O.2     1  UNL1       -0.2707
     21 C         140.1536  145.8073  161.4254 C.3     1  UNL1        0.2898
     22 O         140.6876  145.4381  162.7777 O.3     1  UNL1       -0.4628
     23 H         142.4840  144.0846  159.4888 H       1  UNL1        0.1565
     24 C         140.5935  137.3528  164.6492 C.3     1  UNL1        0.0319
     25 C         139.4455  138.0573  165.3092 C.3     1  UNL1        0.0305
     26 C         138.1975  141.4083  163.5879 C.ar    1  UNL1        0.2247
     27 C         138.4305  139.9492  163.8462 C.ar    1  UNL1        0.0549
     28 C         139.2124  139.5163  165.0509 C.ar    1  UNL1        0.0018
     29 C         139.7613  140.5426  165.9973 C.ar    1  UNL1        0.0982
     30 N         140.5432  140.1097  167.2020 N.ar    1  UNL1       -0.2105
     31 C         141.0920  141.1359  168.1483 C.ar    1  UNL1        0.2250
     32 C         140.8589  142.5950  167.8900 C.ar    1  UNL1        0.0593
     33 C         140.0770  143.0279  166.6853 C.ar    1  UNL1        0.0255
     34 C         139.5282  142.0017  165.7390 C.ar    1  UNL1        0.1019
     35 N         138.7463  142.4345  164.5343 N.ar    1  UNL1       -0.2102
     36 C         138.0926  142.6060  161.2847 C.3     1  UNL1        0.2542
     37 O         137.4156  141.8412  162.3832 O.3     1  UNL1       -0.4561
     38 O         141.8739  140.7031  169.3530 O.3     1  UNL1       -0.4561
     39 C         142.3286  139.2793  169.4802 C.3     1  UNL1        0.2542
@<TRIPOS>BOND
     1    36    37    1
     2    37    26    1
     3    26    27   ar
     4    27    28   ar
     5    28    25    1
     6    25    24    1
     7    24     1    1
     8     1     2    1
     9     2     3    1
    10     3     4    1
    11     4     9    1
    12     9    11    1
    13    11    12    1
    14    12    13   ar
    15    13    14   ar
    16    14    15   ar
    17    15    16   ar
    18    16    17   ar
    19    16    18    1
    20    18    19   am
    21    19    20    2
    22    19    21    1
    23    21    22    1
    24     4     5    1
    25     5     6    1
    26     4     7    1
    27     7     8    1
    28    28    29   ar
    29    29    30   ar
    30    30    31   ar
    31    31    38    1
    32    38    39    1
    33    31    32   ar
    34    32    33   ar
    35    33    34   ar
    36    34    35   ar
    37    35    26   ar
    38     6     1    1
    39    34    29   ar
    40     8     1    1
    41    17    12   ar
    42    22    15    1
    43     9    10    1
    44    18    23    1
@<TRIPOS>MOLECULE
*****
 39 44 0 0 0
SMALL
GASTEIGER

@<TRIPOS>ATOM
      1 C         139.2778  137.6600  164.5466 C.3     1  UNL1        0.0932
      2 C         138.7641  137.8625  163.1519 C.3     1  UNL1        0.0286
      3 C         139.7103  137.8095  161.9892 C.3     1  UNL1        0.0193
      4 C         141.1700  137.5541  162.2211 C.3     1  UNL1        0.0700
      5 C         141.6837  137.3517  163.6158 C.3     1  UNL1        0.0193
      6 C         140.7376  137.4046  164.7786 C.3     1  UNL1        0.0286
      7 C         140.6900  137.5742  162.8897 C.3     1  UNL1        0.1562
      8 O         139.8345  137.6221  163.9412 O.3     1  UNL1       -0.3572
      9 N         142.1162  137.5012  161.0583 N.3     1  UNL1       -0.2926
     10 H         141.6551  136.9586  160.3280 H       1  UNL1        0.1236
     11 C         142.5906  138.7724  160.4189 C.3     1  UNL1        0.1152
     12 C         143.0889  139.9007  161.2725 C.ar    1  UNL1        0.0765
     13 C         144.4177  139.7911  161.9597 C.ar    1  UNL1        0.0193
     14 C         144.9160  140.9193  162.8133 C.ar    1  UNL1        0.0411
     15 C         144.0856  142.1573  162.9797 C.ar    1  UNL1        0.1708
     16 C         142.7567  142.2670  162.2925 C.ar    1  UNL1        0.1682
     17 N         142.2584  141.1387  161.4389 N.ar    1  UNL1       -0.2304
     18 N         141.9263  143.5050  162.4589 N.am    1  UNL1       -0.2639
     19 C         142.4246  144.6333  163.3125 C.2     1  UNL1        0.2718
     20 O         141.5942  145.8713  163.4789 O.2     1  UNL1       -0.2707
     21 C         143.7534  144.5236  163.9997 C.3     1  UNL1        0.2898
     22 O         144.5839  143.2856  163.8333 O.3     1  UNL1       -0.4628
     23 H         141.0541  143.5770  162.0079 H       1  UNL1        0.1565
     24 C         138.3316  137.7130  165.7094 C.3     1  UNL1        0.0319
     25 C         138.1774  138.9823  166.4936 C.3     1  UNL1        0.0305
     26 C         138.5324  142.3632  164.4458 C.ar    1  UNL1        0.2247
     27 C         137.9641  141.0803  164.9760 C.ar    1  UNL1        0.0549
     28 C         138.7456  140.2652  165.9634 C.ar    1  UNL1        0.0018
     29 C         140.0955  140.7331  166.4206 C.ar    1  UNL1        0.0982
     30 N         140.8771  139.9181  167.4079 N.ar    1  UNL1       -0.2105
     31 C         142.2269  140.3860  167.8650 C.ar    1  UNL1        0.2250
     32 C         142.7951  141.6690  167.3348 C.ar    1  UNL1        0.0593
     33 C         142.0136  142.4840  166.3475 C.ar    1  UNL1        0.0255
     34 C         140.6638  142.0161  165.8904 C.ar    1  UNL1        0.1019
     35 N         139.8822  142.8311  164.9030 N.ar    1  UNL1       -0.2102
     36 C         138.3760  144.3817  162.8176 C.3     1  UNL1        0.2542
     37 O         137.7507  143.1782  163.4584 O.3     1  UNL1       -0.4561
     38 O         143.0085  139.5710  168.8524 O.3     1  UNL1       -0.4561
     39 C         142.7216  139.6930  170.3196 C.3     1  UNL1        0.2542
@<TRIPOS>BOND
     1    36    37    1
     2    37    26    1
     3    26    27   ar
     4    27    28   ar
     5    28    25    1
     6    25    24    1
     7    24     1    1
     8     1     2    1
     9     2     3    1
    10     3     4    1
    11     4     9    1
    12     9    11    1
    13    11    12    1
    14    12    13   ar
    15    13    14   ar
    16    14    15   ar
    17    15    16   ar
    18    16    17   ar
    19    16    18    1
    20    18    19   am
    21    19    20    2
    22    19    21    1
    23    21    22    1
    24     4     5    1
    25     5     6    1
    26     4     7    1
    27     7     8    1
    28    28    29   ar
    29    29    30   ar
    30    30    31   ar
    31    31    38    1
    32    38    39    1
    33    31    32   ar
    34    32    33   ar
    35    33    34   ar
    36    34    35   ar
    37    35    26   ar
    38     6     1    1
    39    34    29   ar
    40     8     1    1
    41    17    12   ar
    42    22    15    1
    43     9    10    1
    44    18    23    1
@<TRIPOS>MOLECULE
*****
 39 44 0 0 0
SMALL
GASTEIGER

@<TRIPOS>ATOM
      1 C         139.6868  137.8735  164.3602 C.3     1  UNL1        0.0932
      2 C         139.2850  137.9933  162.9201 C.3     1  UNL1        0.0286
      3 C         140.3214  137.8874  161.8409 C.3     1  UNL1        0.0193
      4 C         141.7597  137.6618  162.2019 C.3     1  UNL1        0.0700
      5 C         142.1616  137.5420  163.6421 C.3     1  UNL1        0.0193
      6 C         141.1252  137.6479  164.7213 C.3     1  UNL1        0.0286
      7 C         141.2276  137.7131  162.8281 C.3     1  UNL1        0.1562
      8 O         140.2904  137.8088  163.8040 O.3     1  UNL1       -0.3572
      9 N         142.7961  137.5559  161.1227 N.3     1  UNL1       -0.2926
     10 H         142.2988  137.5879  160.2327 H       1  UNL1        0.1236
     11 C         143.8984  138.5697  161.0394 C.3     1  UNL1        0.1152
     12 C         143.6659  139.9717  161.5195 C.ar    1  UNL1        0.0765
     13 C         142.7373  140.8779  160.7669 C.ar    1  UNL1        0.0193
     14 C         142.5048  142.2798  161.2470 C.ar    1  UNL1        0.0411
     15 C         143.2008  142.7755  162.4797 C.ar    1  UNL1        0.1708
     16 C         144.1294  141.8693  163.2325 C.ar    1  UNL1        0.1682
     17 N         144.3620  140.4674  162.7524 N.ar    1  UNL1       -0.2304
     18 N         144.8254  142.3651  164.4652 N.am    1  UNL1       -0.2639
     19 C         144.5929  143.7670  164.9453 C.2     1  UNL1        0.2718
     20 O         145.2889  144.2628  166.1781 O.2     1  UNL1       -0.2707
     21 C         143.6643  144.6732  164.1927 C.3     1  UNL1        0.2898
     22 O         142.9683  144.1775  162.9598 O.3     1  UNL1       -0.4628
     23 H         145.4349  141.7703  164.9593 H       1  UNL1        0.1565
     24 C         138.6504  137.9794  165.4394 C.3     1  UNL1        0.0319
     25 C         138.0538  139.3133  165.7780 C.3     1  UNL1        0.0305
     26 C         140.6002  141.5248  167.8695 C.ar    1  UNL1        0.2247
     27 C         139.7110  140.3858  167.4671 C.ar    1  UNL1        0.0549
     28 C         138.9430  140.4523  166.1804 C.ar    1  UNL1        0.0018
     29 C         139.0642  141.6578  165.2960 C.ar    1  UNL1        0.0982
     30 N         138.2963  141.7243  164.0092 N.ar    1  UNL1       -0.2105
     31 C         138.4175  142.9297  163.1249 C.ar    1  UNL1        0.2250
     32 C         139.3068  144.0687  163.5273 C.ar    1  UNL1        0.0593
     33 C         140.0747  144.0023  164.8140 C.ar    1  UNL1        0.0255
     34 C         139.9535  142.7968  165.6984 C.ar    1  UNL1        0.1019
     35 N         140.7215  142.7303  166.9852 N.ar    1  UNL1       -0.2102
     36 C         142.5989  140.6061  169.2521 C.3     1  UNL1        0.2542
     37 O         141.3682  141.4583  169.1564 O.3     1  UNL1       -0.4561
     38 O         137.6495  142.9962  161.8381 O.3     1  UNL1       -0.4561
     39 C         138.2867  142.5378  160.5598 C.3     1  UNL1        0.2542
@<TRIPOS>BOND
     1    36    37    1
     2    37    26    1
     3    26    27   ar
     4    27    28   ar
     5    28    25    1
     6    25    24    1
     7    24     1    1
     8     1     2    1
     9     2     3    1
    10     3     4    1
    11     4     9    1
    12     9    11    1
    13    11    12    1
    14    12    13   ar
    15    13    14   ar
    16    14    15   ar
    17    15    16   ar
    18    16    17   ar
    19    16    18    1
    20    18    19   am
    21    19    20    2
    22    19    21    1
    23    21    22    1
    24     4     5    1
    25     5     6    1
    26     4     7    1
    27     7     8    1
    28    28    29   ar
    29    29    30   ar
    30    30    31   ar
    31    31    38    1
    32    38    39    1
    33    31    32   ar
    34    32    33   ar
    35    33    34   ar
    36    34    35   ar
    37    35    26   ar
    38     6     1    1
    39    34    29   ar
    40     8     1    1
    41    17    12   ar
    42    22    15    1
    43     9    10    1
    44    18    23    1
@<TRIPOS>MOLECULE
*****
 39 44 0 0 0
SMALL
GASTEIGER

@<TRIPOS>ATOM
      1 C         144.4941  140.0835  163.5501 C.3     1  UNL1        0.0932
      2 C         143.8046  139.2654  164.6014 C.3     1  UNL1        0.0286
      3 C         142.7152  138.3100  164.2136 C.3     1  UNL1        0.0193
      4 C         142.3153  138.1727  162.7744 C.3     1  UNL1        0.0700
      5 C         143.0048  138.9908  161.7230 C.3     1  UNL1        0.0193
      6 C         144.0942  139.9462  162.1109 C.3     1  UNL1        0.0286
      7 C         142.9178  138.7094  162.9385 C.3     1  UNL1        0.1562
      8 O         143.9029  139.5733  163.2892 O.3     1  UNL1       -0.3572
      9 N         141.2259  137.2173  162.3866 N.3     1  UNL1       -0.2926
     10 H         141.3539  136.3789  162.9533 H       1  UNL1        0.1236
     11 C         139.7883  137.6210  162.5293 C.3     1  UNL1        0.1152
     12 C         139.3821  139.0452  162.2913 C.ar    1  UNL1        0.0765
     13 C         139.3736  139.5999  160.8977 C.ar    1  UNL1        0.0193
     14 C         138.9674  141.0240  160.6597 C.ar    1  UNL1        0.0411
     15 C         138.5696  141.8936  161.8153 C.ar    1  UNL1        0.1708
     16 C         138.5780  141.3390  163.2091 C.ar    1  UNL1        0.1682
     17 N         138.9843  139.9148  163.4471 N.ar    1  UNL1       -0.2304
     18 N         138.1803  142.2086  164.3647 N.am    1  UNL1       -0.2639
     19 C         137.7740  143.6328  164.1267 C.2     1  UNL1        0.2718
     20 O         137.3762  144.5023  165.2824 O.2     1  UNL1       -0.2707
     21 C         137.7656  144.1874  162.7331 C.3     1  UNL1        0.2898
     22 O         138.1634  143.3178  161.5773 O.3     1  UNL1       -0.4628
     23 H         138.1858  141.8446  165.2794 H       1  UNL1        0.1565
     24 C         145.5835  141.0389  163.9379 C.3     1  UNL1        0.0319
     25 C         145.2371  142.4199  164.4097 C.3     1  UNL1        0.0305
     26 C         141.8988  144.0690  163.0363 C.ar    1  UNL1        0.2247
     27 C         143.3176  143.5870  163.1045 C.ar    1  UNL1        0.0549
     28 C         143.8183  142.9019  164.3414 C.ar    1  UNL1        0.0018
     29 C         142.9001  142.6988  165.5102 C.ar    1  UNL1        0.0982
     30 N         143.4008  142.0137  166.7471 N.ar    1  UNL1       -0.2105
     31 C         142.4827  141.8107  167.9157 C.ar    1  UNL1        0.2250
     32 C         141.0639  142.2927  167.8474 C.ar    1  UNL1        0.0593
     33 C         140.5632  142.9777  166.6106 C.ar    1  UNL1        0.0255
     34 C         141.4813  143.1808  165.4419 C.ar    1  UNL1        0.1019
     35 N         140.9807  143.8659  164.2049 N.ar    1  UNL1       -0.2102
     36 C         141.4802  144.0599  160.4722 C.3     1  UNL1        0.2542
     37 O         141.3981  144.7541  161.7993 O.3     1  UNL1       -0.4561
     38 O         142.9834  141.1256  169.1527 O.3     1  UNL1       -0.4561
     39 C         142.3527  139.8427  169.6069 C.3     1  UNL1        0.2542
@<TRIPOS>BOND
     1    36    37    1
     2    37    26    1
     3    26    27   ar
     4    27    28   ar
     5    28    25    1
     6    25    24    1
     7    24     1    1
     8     1     2    1
     9     2     3    1
    10     3     4    1
    11     4     9    1
    12     9    11    1
    13    11    12    1
    14    12    13   ar
    15    13    14   ar
    16    14    15   ar
    17    15    16   ar
    18    16    17   ar
    19    16    18    1
    20    18    19   am
    21    19    20    2
    22    19    21    1
    23    21    22    1
    24     4     5    1
    25     5     6    1
    26     4     7    1
    27     7     8    1
    28    28    29   ar
    29    29    30   ar
    30    30    31   ar
    31    31    38    1
    32    38    39    1
    33    31    32   ar
    34    32    33   ar
    35    33    34   ar
    36    34    35   ar
    37    35    26   ar
    38     6     1    1
    39    34    29   ar
    40     8     1    1
    41    17    12   ar
    42    22    15    1
    43     9    10    1
    44    18    23    1
@<TRIPOS>MOLECULE
*****
 39 44 0 0 0
SMALL
GASTEIGER

@<TRIPOS>ATOM
      1 C         140.7075  145.0425  162.8677 C.3     1  UNL1        0.0932
      2 C         141.8054  145.2219  163.8738 C.3     1  UNL1        0.0286
      3 C         143.2028  144.7873  163.5447 C.3     1  UNL1        0.0193
      4 C         143.5023  144.1732  162.2093 C.3     1  UNL1        0.0700
      5 C         142.4044  143.9937  161.2031 C.3     1  UNL1        0.0193
      6 C         141.0070  144.4284  161.5323 C.3     1  UNL1        0.0286
      7 C         142.7212  144.3959  162.3442 C.3     1  UNL1        0.1562
      8 O         141.4576  144.7889  162.6418 O.3     1  UNL1       -0.3572
      9 N         144.8997  143.7385  161.8801 N.3     1  UNL1       -0.2926
     10 H         145.4832  143.9952  162.6764 H       1  UNL1        0.1236
     11 C         145.1858  142.2969  161.5805 C.3     1  UNL1        0.1152
     12 C         144.6034  141.2207  162.4480 C.ar    1  UNL1        0.0765
     13 C         145.2943  140.8265  163.7196 C.ar    1  UNL1        0.0193
     14 C         144.7119  139.7502  164.5871 C.ar    1  UNL1        0.0411
     15 C         143.4386  139.0682  164.1830 C.ar    1  UNL1        0.1708
     16 C         142.7475  139.4624  162.9113 C.ar    1  UNL1        0.1682
     17 N         143.3299  140.5387  162.0438 N.ar    1  UNL1       -0.2304
     18 N         141.4742  138.7804  162.5072 N.am    1  UNL1       -0.2639
     19 C         140.8918  137.7042  163.3746 C.2     1  UNL1        0.2718
     20 O         139.6184  137.0222  162.9705 O.2     1  UNL1       -0.2707
     21 C         141.5828  137.3100  164.6463 C.3     1  UNL1        0.2898
     22 O         142.8562  137.9920  165.0505 O.3     1  UNL1       -0.4628
     23 H         141.0207  139.0391  161.6725 H       1  UNL1        0.1565
     24 C         139.3101  145.4772  163.1969 C.3     1  UNL1        0.0319
     25 C         138.4598  144.6420  164.1076 C.3     1  UNL1        0.0305
     26 C         137.9105  140.9577  162.7387 C.ar    1  UNL1        0.2247
     27 C         137.8696  142.4539  162.8373 C.ar    1  UNL1        0.0549
     28 C         138.5007  143.1458  164.0090 C.ar    1  UNL1        0.0018
     29 C         139.1728  142.3415  165.0821 C.ar    1  UNL1        0.0982
     30 N         139.8039  143.0335  166.2538 N.ar    1  UNL1       -0.2105
     31 C         140.4759  142.2292  167.3268 C.ar    1  UNL1        0.2250
     32 C         140.5168  140.7330  167.2282 C.ar    1  UNL1        0.0593
     33 C         139.8857  140.0411  166.0565 C.ar    1  UNL1        0.0255
     34 C         139.2137  140.8453  164.9835 C.ar    1  UNL1        0.1019
     35 N         138.5825  140.1534  163.8117 N.ar    1  UNL1       -0.2102
     36 C         137.4922  138.7953  161.3604 C.3     1  UNL1        0.2542
     37 O         137.2793  140.2657  161.5669 O.3     1  UNL1       -0.4561
     38 O         141.1071  142.9211  168.4986 O.3     1  UNL1       -0.4561
     39 C         140.2850  143.2436  169.7111 C.3     1  UNL1        0.2542
@<TRIPOS>BOND
     1    36    37    1
     2    37    26    1
     3    26    27   ar
     4    27    28   ar
     5    28    25    1
     6    25    24    1
     7    24     1    1
     8     1     2    1
     9     2     3    1
    10     3     4    1
    11     4     9    1
    12     9    11    1
    13    11    12    1
    14    12    13   ar
    15    13    14   ar
    16    14    15   ar
    17    15    16   ar
    18    16    17   ar
    19    16    18    1
    20    18    19   am
    21    19    20    2
    22    19    21    1
    23    21    22    1
    24     4     5    1
    25     5     6    1
    26     4     7    1
    27     7     8    1
    28    28    29   ar
    29    29    30   ar
    30    30    31   ar
    31    31    38    1
    32    38    39    1
    33    31    32   ar
    34    32    33   ar
    35    33    34   ar
    36    34    35   ar
    37    35    26   ar
    38     6     1    1
    39    34    29   ar
    40     8     1    1
    41    17    12   ar
    42    22    15    1
    43     9    10    1
    44    18    23    1
@<TRIPOS>MOLECULE
*****
 39 44 0 0 0
SMALL
GASTEIGER

@<TRIPOS>ATOM
      1 C         139.2971  143.9644  164.2630 C.3     1  UNL1        0.0932
      2 C         140.3280  143.2696  165.1023 C.3     1  UNL1        0.0286
      3 C         141.7826  143.5861  164.9182 C.3     1  UNL1        0.0193
      4 C         142.2063  144.5976  163.8948 C.3     1  UNL1        0.0700
      5 C         141.1755  145.2925  163.0554 C.3     1  UNL1        0.0193
      6 C         139.7208  144.9759  163.2395 C.3     1  UNL1        0.0286
      7 C         141.3976  144.4573  163.9594 C.3     1  UNL1        0.1562
      8 O         140.0823  144.1710  164.1259 O.3     1  UNL1       -0.3572
      9 N         143.6609  144.9141  163.7107 N.3     1  UNL1       -0.2926
     10 H         144.1211  144.7111  164.5980 H       1  UNL1        0.1236
     11 C         144.4511  144.2164  162.6436 C.3     1  UNL1        0.1152
     12 C         144.3564  142.7270  162.4930 C.ar    1  UNL1        0.0765
     13 C         144.9957  141.8282  163.5095 C.ar    1  UNL1        0.0193
     14 C         144.9010  140.3388  163.3589 C.ar    1  UNL1        0.0411
     15 C         144.1668  139.7482  162.1917 C.ar    1  UNL1        0.1708
     16 C         143.5274  140.6470  161.1752 C.ar    1  UNL1        0.1682
     17 N         143.6222  142.1364  161.3258 N.ar    1  UNL1       -0.2304
     18 N         142.7933  140.0564  160.0080 N.am    1  UNL1       -0.2639
     19 C         142.6986  138.5670  159.8574 C.2     1  UNL1        0.2718
     20 O         141.9644  137.9764  158.6903 O.2     1  UNL1       -0.2707
     21 C         143.3379  137.6682  160.8739 C.3     1  UNL1        0.2898
     22 O         144.0721  138.2588  162.0411 O.3     1  UNL1       -0.4628
     23 H         142.3737  140.6463  159.3409 H       1  UNL1        0.1565
     24 C         137.8425  143.6479  164.4471 C.3     1  UNL1        0.0319
     25 C         137.2154  142.5260  163.6738 C.3     1  UNL1        0.0305
     26 C         139.4076  140.6883  160.9230 C.ar    1  UNL1        0.2247
     27 C         138.5415  141.7137  161.5926 C.ar    1  UNL1        0.0549
     28 C         138.0815  141.5005  163.0043 C.ar    1  UNL1        0.0018
     29 C         138.4878  140.2619  163.7465 C.ar    1  UNL1        0.0982
     30 N         138.0279  140.0487  165.1582 N.ar    1  UNL1       -0.2105
     31 C         138.4341  138.8102  165.9004 C.ar    1  UNL1        0.2250
     32 C         139.3002  137.7847  165.2308 C.ar    1  UNL1        0.0593
     33 C         139.7602  137.9979  163.8191 C.ar    1  UNL1        0.0255
     34 C         139.3539  139.2365  163.0770 C.ar    1  UNL1        0.1019
     35 N         139.8138  139.4497  161.6652 N.ar    1  UNL1       -0.2102
     36 C         139.1973  140.1708  158.3857 C.3     1  UNL1        0.2542
     37 O         139.8675  140.9015  159.5112 O.3     1  UNL1       -0.4561
     38 O         137.9742  138.5969  167.3122 O.3     1  UNL1       -0.4561
     39 C         136.8998  137.5927  167.6074 C.3     1  UNL1        0.2542
@<TRIPOS>BOND
     1    36    37    1
     2    37    26    1
     3    26    27   ar
     4    27    28   ar
     5    28    25    1
     6    25    24    1
     7    24     1    1
     8     1     2    1
     9     2     3    1
    10     3     4    1
    11     4     9    1
    12     9    11    1
    13    11    12    1
    14    12    13   ar
    15    13    14   ar
    16    14    15   ar
    17    15    16   ar
    18    16    17   ar
    19    16    18    1
    20    18    19   am
    21    19    20    2
    22    19    21    1
    23    21    22    1
    24     4     5    1
    25     5     6    1
    26     4     7    1
    27     7     8    1
    28    28    29   ar
    29    29    30   ar
    30    30    31   ar
    31    31    38    1
    32    38    39    1
    33    31    32   ar
    34    32    33   ar
    35    33    34   ar
    36    34    35   ar
    37    35    26   ar
    38     6     1    1
    39    34    29   ar
    40     8     1    1
    41    17    12   ar
    42    22    15    1
    43     9    10    1
    44    18    23    1
@<TRIPOS>MOLECULE
*****
 39 44 0 0 0
SMALL
GASTEIGER

@<TRIPOS>ATOM
      1 C         141.8111  138.1149  164.2025 C.3     1  UNL1        0.0932
      2 C         141.8918  138.5895  162.7819 C.3     1  UNL1        0.0286
      3 C         143.0780  139.3846  162.3230 C.3     1  UNL1        0.0193
      4 C         144.1836  139.7052  163.2847 C.3     1  UNL1        0.0700
      5 C         144.1030  139.2306  164.7054 C.3     1  UNL1        0.0193
      6 C         142.9168  138.4355  165.1643 C.3     1  UNL1        0.0286
      7 C         143.5536  139.2666  163.5824 C.3     1  UNL1        0.1562
      8 O         142.4810  138.5475  163.9974 O.3     1  UNL1       -0.3572
      9 N         145.3698  140.5003  162.8258 N.3     1  UNL1       -0.2926
     10 H         145.6245  140.1442  161.9045 H       1  UNL1        0.1236
     11 C         145.2703  141.9918  162.7012 C.3     1  UNL1        0.1152
     12 C         144.2984  142.6004  161.7342 C.ar    1  UNL1        0.0765
     13 C         144.3870  142.2700  160.2737 C.ar    1  UNL1        0.0193
     14 C         143.4151  142.8786  159.3068 C.ar    1  UNL1        0.0411
     15 C         142.3547  143.8176  159.8002 C.ar    1  UNL1        0.1708
     16 C         142.2660  144.1481  161.2607 C.ar    1  UNL1        0.1682
     17 N         143.2379  143.5395  162.2277 N.ar    1  UNL1       -0.2304
     18 N         141.2056  145.0872  161.7541 N.am    1  UNL1       -0.2639
     19 C         140.2337  145.6958  160.7872 C.2     1  UNL1        0.2718
     20 O         139.1732  146.6348  161.2806 O.2     1  UNL1       -0.2707
     21 C         140.3223  145.3653  159.3267 C.3     1  UNL1        0.2898
     22 O         141.3828  144.4262  158.8332 O.3     1  UNL1       -0.4628
     23 H         141.1474  145.3041  162.7127 H       1  UNL1        0.1565
     24 C         140.6249  137.3198  164.6615 C.3     1  UNL1        0.0319
     25 C         139.4059  138.0230  165.1804 C.3     1  UNL1        0.0305
     26 C         140.1517  141.3187  167.2618 C.ar    1  UNL1        0.2247
     27 C         140.0764  139.8701  166.8801 C.ar    1  UNL1        0.0549
     28 C         139.4813  139.4717  165.5621 C.ar    1  UNL1        0.0018
     29 C         138.9615  140.5221  164.6258 C.ar    1  UNL1        0.0982
     30 N         138.3665  140.1237  163.3078 N.ar    1  UNL1       -0.2105
     31 C         137.8468  141.1740  162.3715 C.ar    1  UNL1        0.2250
     32 C         137.9222  142.6227  162.7532 C.ar    1  UNL1        0.0593
     33 C         138.5172  143.0210  164.0712 C.ar    1  UNL1        0.0255
     34 C         139.0369  141.9707  165.0075 C.ar    1  UNL1        0.1019
     35 N         139.6320  142.3690  166.3255 N.ar    1  UNL1       -0.2102
     36 C         140.5705  143.1165  169.0901 C.3     1  UNL1        0.2542
     37 O         140.7468  141.7170  168.5799 O.3     1  UNL1       -0.4561
     38 O         137.2517  140.7757  161.0534 O.3     1  UNL1       -0.4561
     39 C         137.9699  139.7983  160.1709 C.3     1  UNL1        0.2542
@<TRIPOS>BOND
     1    36    37    1
     2    37    26    1
     3    26    27   ar
     4    27    28   ar
     5    28    25    1
     6    25    24    1
     7    24     1    1
     8     1     2    1
     9     2     3    1
    10     3     4    1
    11     4     9    1
    12     9    11    1
    13    11    12    1
    14    12    13   ar
    15    13    14   ar
    16    14    15   ar
    17    15    16   ar
    18    16    17   ar
    19    16    18    1
    20    18    19   am
    21    19    20    2
    22    19    21    1
    23    21    22    1
    24     4     5    1
    25     5     6    1
    26     4     7    1
    27     7     8    1
    28    28    29   ar
    29    29    30   ar
    30    30    31   ar
    31    31    38    1
    32    38    39    1
    33    31    32   ar
    34    32    33   ar
    35    33    34   ar
    36    34    35   ar
    37    35    26   ar
    38     6     1    1
    39    34    29   ar
    40     8     1    1
    41    17    12   ar
    42    22    15    1
    43     9    10    1
    44    18    23    1
@<TRIPOS>MOLECULE
*****
 39 44 0 0 0
SMALL
GASTEIGER

@<TRIPOS>ATOM
      1 C         138.0089  139.8044  162.5675 C.3     1  UNL1        0.0932
      2 C         138.0618  140.5720  161.2799 C.3     1  UNL1        0.0286
      3 C         137.9477  142.0676  161.2931 C.3     1  UNL1        0.0193
      4 C         137.7807  142.7956  162.5939 C.3     1  UNL1        0.0700
      5 C         137.7277  142.0280  163.8816 C.3     1  UNL1        0.0193
      6 C         137.8419  140.5324  163.8684 C.3     1  UNL1        0.0286
      7 C         137.8389  141.9754  162.6370 C.3     1  UNL1        0.1562
      8 O         137.9421  140.6230  162.6251 O.3     1  UNL1       -0.3572
      9 N         137.6666  144.2912  162.6071 N.3     1  UNL1       -0.2926
     10 H         137.1182  144.5374  163.4312 H       1  UNL1        0.1236
     11 C         138.9044  145.1376  162.6419 C.3     1  UNL1        0.1152
     12 C         140.1514  144.6714  161.9508 C.ar    1  UNL1        0.0765
     13 C         140.3168  144.8873  160.4757 C.ar    1  UNL1        0.0193
     14 C         141.5638  144.4212  159.7845 C.ar    1  UNL1        0.0411
     15 C         142.6454  143.7390  160.5685 C.ar    1  UNL1        0.1708
     16 C         142.4801  143.5230  162.0437 C.ar    1  UNL1        0.1682
     17 N         141.2331  143.9892  162.7348 N.ar    1  UNL1       -0.2304
     18 N         143.5618  142.8409  162.8276 N.am    1  UNL1       -0.2639
     19 C         144.8088  142.3747  162.1365 C.2     1  UNL1        0.2718
     20 O         145.8905  141.6926  162.9205 O.2     1  UNL1       -0.2707
     21 C         144.9741  142.5907  160.6614 C.3     1  UNL1        0.2898
     22 O         143.8924  143.2729  159.8773 O.3     1  UNL1       -0.4628
     23 H         143.4533  142.6992  163.7958 H       1  UNL1        0.1565
     24 C         138.1230  138.3088  162.5543 C.3     1  UNL1        0.0319
     25 C         139.2662  137.6376  163.2563 C.3     1  UNL1        0.0305
     26 C         142.7099  138.4065  161.4398 C.ar    1  UNL1        0.2247
     27 C         141.3052  137.9352  161.6740 C.ar    1  UNL1        0.0549
     28 C         140.6708  138.1089  163.0221 C.ar    1  UNL1        0.0018
     29 C         141.4411  138.7539  164.1360 C.ar    1  UNL1        0.0982
     30 N         140.8067  138.9275  165.4841 N.ar    1  UNL1       -0.2105
     31 C         141.5769  139.5725  166.5980 C.ar    1  UNL1        0.2250
     32 C         142.9816  140.0437  166.3638 C.ar    1  UNL1        0.0593
     33 C         143.6160  139.8701  165.0157 C.ar    1  UNL1        0.0255
     34 C         142.8457  139.2251  163.9018 C.ar    1  UNL1        0.1019
     35 N         143.4801  139.0514  162.5537 N.ar    1  UNL1       -0.2102
     36 C         143.5914  139.4279  159.2195 C.3     1  UNL1        0.2542
     37 O         143.3443  138.2328  160.0917 O.3     1  UNL1       -0.4561
     38 O         140.9425  139.7462  167.9461 O.3     1  UNL1       -0.4561
     39 C         141.7984  139.7954  169.1770 C.3     1  UNL1        0.2542
@<TRIPOS>BOND
     1    36    37    1
     2    37    26    1
     3    26    27   ar
     4    27    28   ar
     5    28    25    1
     6    25    24    1
     7    24     1    1
     8     1     2    1
     9     2     3    1
    10     3     4    1
    11     4     9    1
    12     9    11    1
    13    11    12    1
    14    12    13   ar
    15    13    14   ar
    16    14    15   ar
    17    15    16   ar
    18    16    17   ar
    19    16    18    1
    20    18    19   am
    21    19    20    2
    22    19    21    1
    23    21    22    1
    24     4     5    1
    25     5     6    1
    26     4     7    1
    27     7     8    1
    28    28    29   ar
    29    29    30   ar
    30    30    31   ar
    31    31    38    1
    32    38    39    1
    33    31    32   ar
    34    32    33   ar
    35    33    34   ar
    36    34    35   ar
    37    35    26   ar
    38     6     1    1
    39    34    29   ar
    40     8     1    1
    41    17    12   ar
    42    22    15    1
    43     9    10    1
    44    18    23    1
