@<TRIPOS>MOLECULE
*****
 29 31 0 0 0
SMALL
GASTEIGER

@<TRIPOS>ATOM
      1 C         140.6841  138.0412  157.6770 C.2     1  UNL1        0.2414
      2 O         139.3394  138.0299  157.0124 O.2     1  UNL1       -0.2734
      3 N         140.8185  138.5272  159.0896 N.am    1  UNL1       -0.2749
      4 C         142.1632  138.5385  159.7542 C.3     1  UNL1        0.1150
      5 C         142.2976  139.0245  161.1670 C.3     1  UNL1        0.1165
      6 N         141.0873  139.4993  161.9151 N.am    1  UNL1       -0.2605
      7 C         141.2217  139.9853  163.3277 C.2     1  UNL1        0.3078
      8 O         140.0113  140.4601  164.0759 O.2     1  UNL1       -0.2522
      9 N         142.5664  139.9966  163.9923 N.am    1  UNL1       -0.2681
     10 C         139.7426  139.4880  161.2505 C.3     1  UNL1        0.1165
     11 C         139.6082  139.0020  159.8378 C.3     1  UNL1        0.1150
     12 H         143.3608  139.6850  163.5013 H       1  UNL1        0.1564
     13 C         142.7008  140.4827  165.4050 C.ar    1  UNL1        0.0525
     14 C         143.0205  141.9230  165.6754 C.ar    1  UNL1        0.0156
     15 C         143.1549  142.4091  167.0880 C.ar    1  UNL1        0.0135
     16 C         142.9695  141.4548  168.2303 C.ar    1  UNL1        0.0683
     17 CL        143.1039  141.9409  169.6431 Cl      1  UNL1       -0.0814
     18 C         142.6497  140.0145  167.9600 C.ar    1  UNL1        0.0694
     19 CL        142.4643  139.0602  169.1024 Cl      1  UNL1       -0.0813
     20 C         142.5153  139.5284  166.5473 C.ar    1  UNL1        0.0270
     21 N         143.4809  135.6397  156.2069 N.3     1  UNL1       -0.2700
     22 C         144.3150  136.6167  155.4325 C.3     1  UNL1        0.0894
     23 C         143.9388  138.0685  155.4063 C.3     1  UNL1        0.0865
     24 N         142.7286  138.5434  156.1544 N.3     1  UNL1       -0.2890
     25 C         141.8945  137.5664  156.9288 C.3     1  UNL1        0.1479
     26 C         142.2706  136.1145  156.9551 C.3     1  UNL1        0.0975
     27 H         142.1113  138.9795  155.4694 H       1  UNL1        0.1237
     28 C         144.0827  133.4952  157.5443 C.3     1  UNL1        0.0188
     29 C         143.8571  134.1879  156.2332 C.3     1  UNL1        0.0722
@<TRIPOS>BOND
     1    28    29    1
     2    29    21    1
     3    21    22    1
     4    22    23    1
     5    23    24    1
     6    24    25    1
     7    25     1    1
     8     1     2    2
     9     1     3   am
    10     3     4    1
    11     4     5    1
    12     5     6    1
    13     6     7   am
    14     7     8    2
    15     7     9   am
    16     9    13    1
    17    13    14   ar
    18    14    15   ar
    19    15    16   ar
    20    16    17    1
    21    16    18   ar
    22    18    19    1
    23    18    20   ar
    24     6    10    1
    25    10    11    1
    26    25    26    1
    27    26    21    1
    28    11     3    1
    29    20    13   ar
    30    24    27    1
    31     9    12    1
@<TRIPOS>MOLECULE
*****
 29 31 0 0 0
SMALL
GASTEIGER

@<TRIPOS>ATOM
      1 C         143.5606  137.5387  156.2199 C.2     1  UNL1        0.2414
      2 O         144.7605  137.9384  155.4134 O.2     1  UNL1       -0.2734
      3 N         142.9982  138.4791  157.2443 N.am    1  UNL1       -0.2749
      4 C         141.7983  138.0793  158.0508 C.3     1  UNL1        0.1150
      5 C         141.2360  139.0198  159.0752 C.3     1  UNL1        0.1165
      6 N         141.8735  140.3600  159.2931 N.am    1  UNL1       -0.2605
      7 C         141.3112  141.3004  160.3174 C.2     1  UNL1        0.3078
      8 O         141.9487  142.6406  160.5353 O.2     1  UNL1       -0.2522
      9 N         140.1112  140.9006  161.1239 N.am    1  UNL1       -0.2681
     10 C         143.0734  140.7597  158.4866 C.3     1  UNL1        0.1165
     11 C         143.6358  139.8193  157.4622 C.3     1  UNL1        0.1150
     12 H         139.6928  140.0210  160.9809 H       1  UNL1        0.1564
     13 C         139.5489  141.8411  162.1483 C.ar    1  UNL1        0.0525
     14 C         138.3390  142.6666  161.8245 C.ar    1  UNL1        0.0156
     15 C         137.7767  143.6070  162.8488 C.ar    1  UNL1        0.0135
     16 C         138.4242  143.7220  164.1970 C.ar    1  UNL1        0.0683
     17 CL        137.8618  144.6625  165.2214 Cl      1  UNL1       -0.0814
     18 C         139.6340  142.8965  164.5208 C.ar    1  UNL1        0.0694
     19 CL        140.2816  143.0115  165.8690 Cl      1  UNL1       -0.0813
     20 C         140.1964  141.9561  163.4964 C.ar    1  UNL1        0.0270
     21 N         142.8150  133.6507  156.4993 N.3     1  UNL1       -0.2700
     22 C         141.6481  133.5181  155.5663 C.3     1  UNL1        0.0894
     23 C         141.1186  134.7257  154.8512 C.3     1  UNL1        0.0865
     24 N         141.7560  136.0659  155.0690 N.3     1  UNL1       -0.2890
     25 C         142.9230  136.1985  156.0020 C.3     1  UNL1        0.1479
     26 C         143.4525  134.9909  156.7171 C.3     1  UNL1        0.0975
     27 H         141.0261  136.6855  155.4206 H       1  UNL1        0.1237
     28 C         144.7881  132.3832  157.6175 C.3     1  UNL1        0.0188
     29 C         143.3446  132.4431  157.2144 C.3     1  UNL1        0.0722
@<TRIPOS>BOND
     1    28    29    1
     2    29    21    1
     3    21    22    1
     4    22    23    1
     5    23    24    1
     6    24    25    1
     7    25     1    1
     8     1     2    2
     9     1     3   am
    10     3     4    1
    11     4     5    1
    12     5     6    1
    13     6     7   am
    14     7     8    2
    15     7     9   am
    16     9    13    1
    17    13    14   ar
    18    14    15   ar
    19    15    16   ar
    20    16    17    1
    21    16    18   ar
    22    18    19    1
    23    18    20   ar
    24     6    10    1
    25    10    11    1
    26    25    26    1
    27    26    21    1
    28    11     3    1
    29    20    13   ar
    30    24    27    1
    31     9    12    1
@<TRIPOS>MOLECULE
*****
 29 31 0 0 0
SMALL
GASTEIGER

@<TRIPOS>ATOM
      1 C         139.5619  143.6523  163.9862 C.2     1  UNL1        0.2414
      2 O         138.5526  144.7598  164.0549 O.2     1  UNL1       -0.2734
      3 N         140.4747  143.5420  162.8011 N.am    1  UNL1       -0.2749
      4 C         141.4840  142.4345  162.7323 C.3     1  UNL1        0.1150
      5 C         142.3969  142.3242  161.5471 C.3     1  UNL1        0.1165
      6 N         142.3004  143.3213  160.4307 N.am    1  UNL1       -0.2605
      7 C         143.2132  143.2109  159.2456 C.2     1  UNL1        0.3078
      8 O         143.1167  144.2081  158.1292 O.2     1  UNL1       -0.2522
      9 N         144.2225  142.1034  159.1769 N.am    1  UNL1       -0.2681
     10 C         141.2911  144.4288  160.4995 C.3     1  UNL1        0.1165
     11 C         140.3782  144.5392  161.6846 C.3     1  UNL1        0.1150
     12 H         144.2858  141.4490  159.9096 H       1  UNL1        0.1564
     13 C         145.1353  141.9931  157.9917 C.ar    1  UNL1        0.0525
     14 C         146.3827  142.8235  157.9259 C.ar    1  UNL1        0.0156
     15 C         147.2956  142.7133  156.7408 C.ar    1  UNL1        0.0135
     16 C         146.9610  141.7725  155.6214 C.ar    1  UNL1        0.0683
     17 CL        147.8738  141.6622  154.4362 Cl      1  UNL1       -0.0814
     18 C         145.7135  140.9421  155.6872 C.ar    1  UNL1        0.0694
     19 CL        145.3790  140.0013  154.5677 Cl      1  UNL1       -0.0813
     20 C         144.8007  141.0524  156.8723 C.ar    1  UNL1        0.0270
     21 N         139.0344  140.3463  166.1174 N.3     1  UNL1       -0.2700
     22 C         139.8513  140.6609  167.3354 C.3     1  UNL1        0.0894
     23 C         140.5717  141.9726  167.4371 C.3     1  UNL1        0.0865
     24 N         140.4753  142.9697  166.3207 N.3     1  UNL1       -0.2890
     25 C         139.6584  142.6552  165.1026 C.3     1  UNL1        0.1479
     26 C         138.9379  141.3434  165.0010 C.3     1  UNL1        0.0975
     27 H         141.4274  143.1451  165.9995 H       1  UNL1        0.1237
     28 C         137.5766  138.4899  167.2029 C.3     1  UNL1        0.0188
     29 C         138.3139  139.0346  166.0157 C.3     1  UNL1        0.0722
@<TRIPOS>BOND
     1    28    29    1
     2    29    21    1
     3    21    22    1
     4    22    23    1
     5    23    24    1
     6    24    25    1
     7    25     1    1
     8     1     2    2
     9     1     3   am
    10     3     4    1
    11     4     5    1
    12     5     6    1
    13     6     7   am
    14     7     8    2
    15     7     9   am
    16     9    13    1
    17    13    14   ar
    18    14    15   ar
    19    15    16   ar
    20    16    17    1
    21    16    18   ar
    22    18    19    1
    23    18    20   ar
    24     6    10    1
    25    10    11    1
    26    25    26    1
    27    26    21    1
    28    11     3    1
    29    20    13   ar
    30    24    27    1
    31     9    12    1
@<TRIPOS>MOLECULE
*****
 29 31 0 0 0
SMALL
GASTEIGER

@<TRIPOS>ATOM
      1 C         143.3460  143.3261  162.5019 C.2     1  UNL1        0.2414
      2 O         144.3061  144.4716  162.3755 O.2     1  UNL1       -0.2734
      3 N         143.2604  142.2958  161.4152 N.am    1  UNL1       -0.2749
      4 C         142.3003  141.1503  161.5416 C.3     1  UNL1        0.1150
      5 C         142.2148  140.1199  160.4548 C.3     1  UNL1        0.1165
      6 N         143.0894  140.2351  159.2417 N.am    1  UNL1       -0.2605
      7 C         143.0038  139.2047  158.1549 C.2     1  UNL1        0.3078
      8 O         143.8785  139.3198  156.9417 O.2     1  UNL1       -0.2522
      9 N         142.0437  138.0592  158.2813 N.am    1  UNL1       -0.2681
     10 C         144.0495  141.3806  159.1152 C.3     1  UNL1        0.1165
     11 C         144.1351  142.4109  160.2020 C.3     1  UNL1        0.1150
     12 H         141.4696  137.9837  159.0776 H       1  UNL1        0.1564
     13 C         141.9582  137.0289  157.1945 C.ar    1  UNL1        0.0525
     14 C         140.8511  137.0943  156.1845 C.ar    1  UNL1        0.0156
     15 C         140.7656  136.0640  155.0977 C.ar    1  UNL1        0.0135
     16 C         141.7871  134.9683  155.0210 C.ar    1  UNL1        0.0683
     17 CL        141.7016  133.9379  153.9342 Cl      1  UNL1       -0.0814
     18 C         142.8941  134.9029  156.0310 C.ar    1  UNL1        0.0694
     19 CL        143.9157  133.8071  155.9542 Cl      1  UNL1       -0.0813
     20 C         142.9797  135.9332  157.1178 C.ar    1  UNL1        0.0270
     21 N         140.3120  143.8666  165.0025 N.3     1  UNL1       -0.2700
     22 C         140.7221  142.9809  166.1414 C.3     1  UNL1        0.0894
     23 C         142.0068  142.2102  166.0672 C.3     1  UNL1        0.0865
     24 N         142.8815  142.3253  164.8541 N.3     1  UNL1       -0.2890
     25 C         142.4713  143.2110  163.7152 C.3     1  UNL1        0.1479
     26 C         141.1866  143.9817  163.7894 C.3     1  UNL1        0.0975
     27 H         142.9826  141.3843  164.4736 H       1  UNL1        0.1237
     28 C         137.7638  144.0437  164.5281 C.3     1  UNL1        0.0188
     29 C         139.0273  144.6373  165.0768 C.3     1  UNL1        0.0722
@<TRIPOS>BOND
     1    28    29    1
     2    29    21    1
     3    21    22    1
     4    22    23    1
     5    23    24    1
     6    24    25    1
     7    25     1    1
     8     1     2    2
     9     1     3   am
    10     3     4    1
    11     4     5    1
    12     5     6    1
    13     6     7   am
    14     7     8    2
    15     7     9   am
    16     9    13    1
    17    13    14   ar
    18    14    15   ar
    19    15    16   ar
    20    16    17    1
    21    16    18   ar
    22    18    19    1
    23    18    20   ar
    24     6    10    1
    25    10    11    1
    26    25    26    1
    27    26    21    1
    28    11     3    1
    29    20    13   ar
    30    24    27    1
    31     9    12    1
@<TRIPOS>MOLECULE
*****
 29 31 0 0 0
SMALL
GASTEIGER

@<TRIPOS>ATOM
      1 C         143.6566  143.0511  158.6021 C.2     1  UNL1        0.2414
      2 O         145.0037  142.6825  158.0549 O.2     1  UNL1       -0.2734
      3 N         143.2959  142.6909  160.0128 N.am    1  UNL1       -0.2749
      4 C         141.9488  143.0595  160.5600 C.3     1  UNL1        0.1150
      5 C         141.5881  142.6992  161.9707 C.3     1  UNL1        0.1165
      6 N         142.5745  141.9703  162.8342 N.am    1  UNL1       -0.2605
      7 C         142.2138  141.6101  164.2449 C.2     1  UNL1        0.3078
      8 O         143.2002  140.8811  165.1085 O.2     1  UNL1       -0.2522
      9 N         140.8667  141.9787  164.7921 N.am    1  UNL1       -0.2681
     10 C         143.9216  141.6017  162.2870 C.3     1  UNL1        0.1165
     11 C         144.2823  141.9619  160.8763 C.3     1  UNL1        0.1150
     12 H         140.2193  142.4572  164.2253 H       1  UNL1        0.1564
     13 C         140.5060  141.6184  166.2028 C.ar    1  UNL1        0.0525
     14 C         139.9012  140.2791  166.5036 C.ar    1  UNL1        0.0156
     15 C         139.5406  139.9188  167.9143 C.ar    1  UNL1        0.0135
     16 C         139.7847  140.8978  169.0242 C.ar    1  UNL1        0.0683
     17 CL        139.4240  140.5375  170.4349 Cl      1  UNL1       -0.0814
     18 C         140.3895  142.2371  168.7234 C.ar    1  UNL1        0.0694
     19 CL        140.6337  143.2161  169.8334 Cl      1  UNL1       -0.0813
     20 C         140.7502  142.5974  167.3127 C.ar    1  UNL1        0.0270
     21 N         140.6959  143.7383  156.0502 N.3     1  UNL1       -0.2700
     22 C         140.6974  145.2378  156.0114 C.3     1  UNL1        0.0894
     23 C         141.6853  146.0084  156.8362 C.3     1  UNL1        0.0865
     24 N         142.6716  145.2796  157.6998 N.3     1  UNL1       -0.2890
     25 C         142.6702  143.7801  157.7385 C.3     1  UNL1        0.1479
     26 C         141.6823  143.0095  156.9137 C.3     1  UNL1        0.0975
     27 H         142.5181  145.5990  158.6562 H       1  UNL1        0.1237
     28 C         138.2414  143.0706  155.5219 C.3     1  UNL1        0.0188
     29 C         139.7081  142.9677  155.2253 C.3     1  UNL1        0.0722
@<TRIPOS>BOND
     1    28    29    1
     2    29    21    1
     3    21    22    1
     4    22    23    1
     5    23    24    1
     6    24    25    1
     7    25     1    1
     8     1     2    2
     9     1     3   am
    10     3     4    1
    11     4     5    1
    12     5     6    1
    13     6     7   am
    14     7     8    2
    15     7     9   am
    16     9    13    1
    17    13    14   ar
    18    14    15   ar
    19    15    16   ar
    20    16    17    1
    21    16    18   ar
    22    18    19    1
    23    18    20   ar
    24     6    10    1
    25    10    11    1
    26    25    26    1
    27    26    21    1
    28    11     3    1
    29    20    13   ar
    30    24    27    1
    31     9    12    1
@<TRIPOS>MOLECULE
*****
 29 31 0 0 0
SMALL
GASTEIGER

@<TRIPOS>ATOM
      1 C         139.4424  143.5947  163.8012 C.2     1  UNL1        0.2414
      2 O         138.3608  144.6339  163.8088 O.2     1  UNL1       -0.2734
      3 N         140.3707  143.4869  162.6279 N.am    1  UNL1       -0.2749
      4 C         141.4523  142.4477  162.6203 C.3     1  UNL1        0.1150
      5 C         142.3806  142.3398  161.4469 C.3     1  UNL1        0.1165
      6 N         142.2272  143.2712  160.2812 N.am    1  UNL1       -0.2605
      7 C         143.1555  143.1634  159.1079 C.2     1  UNL1        0.3078
      8 O         143.0021  144.0948  157.9421 O.2     1  UNL1       -0.2522
      9 N         144.2371  142.1242  159.1004 N.am    1  UNL1       -0.2681
     10 C         141.1456  144.3105  160.2888 C.3     1  UNL1        0.1165
     11 C         140.2173  144.4183  161.4621 C.3     1  UNL1        0.1150
     12 H         144.3378  141.5129  159.8655 H       1  UNL1        0.1564
     13 C         145.1654  142.0164  157.9270 C.ar    1  UNL1        0.0525
     14 C         146.4362  142.8128  157.9004 C.ar    1  UNL1        0.0156
     15 C         147.3645  142.7050  156.7271 C.ar    1  UNL1        0.0135
     16 C         147.0219  141.8008  155.5804 C.ar    1  UNL1        0.0683
     17 CL        147.9502  141.6930  154.4070 Cl      1  UNL1       -0.0814
     18 C         145.7510  141.0044  155.6069 C.ar    1  UNL1        0.0694
     19 CL        145.4085  140.1002  154.4601 Cl      1  UNL1       -0.0813
     20 C         144.8228  141.1122  156.7802 C.ar    1  UNL1        0.0270
     21 N         140.4573  142.1923  167.3724 N.3     1  UNL1       -0.2700
     22 C         139.9026  140.8007  167.2986 C.3     1  UNL1        0.0894
     23 C         139.1945  140.3403  166.0589 C.3     1  UNL1        0.0865
     24 N         139.0411  141.2716  164.8931 N.3     1  UNL1       -0.2890
     25 C         139.5958  142.6633  164.9670 C.3     1  UNL1        0.1479
     26 C         140.3039  143.1237  166.2067 C.3     1  UNL1        0.0975
     27 H         138.0403  141.3625  164.7185 H       1  UNL1        0.1237
     28 C         140.4543  143.5288  169.6004 C.3     1  UNL1        0.0188
     29 C         141.1653  142.6527  168.6121 C.3     1  UNL1        0.0722
@<TRIPOS>BOND
     1    28    29    1
     2    29    21    1
     3    21    22    1
     4    22    23    1
     5    23    24    1
     6    24    25    1
     7    25     1    1
     8     1     2    2
     9     1     3   am
    10     3     4    1
    11     4     5    1
    12     5     6    1
    13     6     7   am
    14     7     8    2
    15     7     9   am
    16     9    13    1
    17    13    14   ar
    18    14    15   ar
    19    15    16   ar
    20    16    17    1
    21    16    18   ar
    22    18    19    1
    23    18    20   ar
    24     6    10    1
    25    10    11    1
    26    25    26    1
    27    26    21    1
    28    11     3    1
    29    20    13   ar
    30    24    27    1
    31     9    12    1
@<TRIPOS>MOLECULE
*****
 29 31 0 0 0
SMALL
GASTEIGER

@<TRIPOS>ATOM
      1 C         143.2165  143.3815  162.4633 C.2     1  UNL1        0.2414
      2 O         144.2142  144.4978  162.3721 O.2     1  UNL1       -0.2734
      3 N         143.1531  142.3422  161.3835 N.am    1  UNL1       -0.2749
      4 C         142.1554  141.2259  161.4747 C.3     1  UNL1        0.1150
      5 C         142.0920  140.1866  160.3949 C.3     1  UNL1        0.1165
      6 N         143.0262  140.2638  159.2239 N.am    1  UNL1       -0.2605
      7 C         142.9628  139.2245  158.1442 C.2     1  UNL1        0.3078
      8 O         143.8971  139.3017  156.9731 O.2     1  UNL1       -0.2522
      9 N         141.9651  138.1082  158.2353 N.am    1  UNL1       -0.2681
     10 C         144.0239  141.3801  159.1327 C.3     1  UNL1        0.1165
     11 C         144.0874  142.4194  160.2125 C.3     1  UNL1        0.1150
     12 H         141.3519  138.0575  159.0039 H       1  UNL1        0.1564
     13 C         141.9017  137.0689  157.1555 C.ar    1  UNL1        0.0525
     14 C         140.8090  137.1195  156.1292 C.ar    1  UNL1        0.0156
     15 C         140.7455  136.0803  155.0494 C.ar    1  UNL1        0.0135
     16 C         141.7748  134.9905  154.9959 C.ar    1  UNL1        0.0683
     17 CL        141.7114  133.9513  153.9160 Cl      1  UNL1       -0.0814
     18 C         142.8676  134.9400  156.0222 C.ar    1  UNL1        0.0694
     19 CL        143.8969  133.8501  155.9687 Cl      1  UNL1       -0.0813
     20 C         142.9310  135.9791  157.1020 C.ar    1  UNL1        0.0270
     21 N         141.7497  142.4705  166.0366 N.3     1  UNL1       -0.2700
     22 C         140.4138  143.1501  165.9763 C.3     1  UNL1        0.0894
     23 C         140.0122  143.9068  164.7451 C.3     1  UNL1        0.0865
     24 N         140.9464  143.9840  163.5741 N.3     1  UNL1       -0.2890
     25 C         142.2822  143.3043  163.6343 C.3     1  UNL1        0.1479
     26 C         142.6839  142.5476  164.8656 C.3     1  UNL1        0.0975
     27 H         141.1269  144.9737  163.4061 H       1  UNL1        0.1237
     28 C         143.1498  142.3042  168.2188 C.3     1  UNL1        0.0188
     29 C         142.1513  141.7137  167.2679 C.3     1  UNL1        0.0722
@<TRIPOS>BOND
     1    28    29    1
     2    29    21    1
     3    21    22    1
     4    22    23    1
     5    23    24    1
     6    24    25    1
     7    25     1    1
     8     1     2    2
     9     1     3   am
    10     3     4    1
    11     4     5    1
    12     5     6    1
    13     6     7   am
    14     7     8    2
    15     7     9   am
    16     9    13    1
    17    13    14   ar
    18    14    15   ar
    19    15    16   ar
    20    16    17    1
    21    16    18   ar
    22    18    19    1
    23    18    20   ar
    24     6    10    1
    25    10    11    1
    26    25    26    1
    27    26    21    1
    28    11     3    1
    29    20    13   ar
    30    24    27    1
    31     9    12    1
@<TRIPOS>MOLECULE
*****
 29 31 0 0 0
SMALL
GASTEIGER

@<TRIPOS>ATOM
      1 C         143.3055  140.4547  158.7523 C.2     1  UNL1        0.2414
      2 O         144.3149  141.1748  157.9080 O.2     1  UNL1       -0.2734
      3 N         143.2361  140.7189  160.2271 N.am    1  UNL1       -0.2749
      4 C         142.2267  139.9988  161.0713 C.3     1  UNL1        0.1150
      5 C         142.1573  140.2630  162.5463 C.3     1  UNL1        0.1165
      6 N         143.0972  141.2472  163.1770 N.am    1  UNL1       -0.2605
      7 C         143.0277  141.5114  164.6519 C.2     1  UNL1        0.3078
      8 O         143.9677  142.4957  165.2826 O.2     1  UNL1       -0.2522
      9 N         142.0184  140.7913  165.4961 N.am    1  UNL1       -0.2681
     10 C         144.1065  141.9673  162.3328 C.3     1  UNL1        0.1165
     11 C         144.1760  141.7031  160.8579 C.3     1  UNL1        0.1150
     12 H         141.4015  140.1453  165.0821 H       1  UNL1        0.1564
     13 C         141.9489  141.0555  166.9711 C.ar    1  UNL1        0.0525
     14 C         142.6245  140.1233  167.9326 C.ar    1  UNL1        0.0156
     15 C         142.5551  140.3874  169.4075 C.ar    1  UNL1        0.0135
     16 C         141.8102  141.5839  169.9208 C.ar    1  UNL1        0.0683
     17 CL        141.7407  141.8481  171.3958 Cl      1  UNL1       -0.0814
     18 C         141.1346  142.5161  168.9593 C.ar    1  UNL1        0.0694
     19 CL        140.3897  143.7126  169.4728 Cl      1  UNL1       -0.0813
     20 C         141.2040  142.2520  167.4844 C.ar    1  UNL1        0.0270
     21 N         141.9305  137.1447  157.0483 N.3     1  UNL1       -0.2700
     22 C         140.4859  137.5019  156.8600 C.3     1  UNL1        0.0894
     23 C         139.9811  138.8433  157.3025 C.3     1  UNL1        0.0865
     24 N         140.9210  139.8276  157.9332 N.3     1  UNL1       -0.2890
     25 C         142.3656  139.4704  158.1215 C.3     1  UNL1        0.1479
     26 C         142.8703  138.1290  157.6790 C.3     1  UNL1        0.0975
     27 H         140.5473  140.0404  158.8581 H       1  UNL1        0.1237
     28 C         143.7996  135.6795  155.9950 C.3     1  UNL1        0.0188
     29 C         142.4353  135.8033  156.6059 C.3     1  UNL1        0.0722
@<TRIPOS>BOND
     1    28    29    1
     2    29    21    1
     3    21    22    1
     4    22    23    1
     5    23    24    1
     6    24    25    1
     7    25     1    1
     8     1     2    2
     9     1     3   am
    10     3     4    1
    11     4     5    1
    12     5     6    1
    13     6     7   am
    14     7     8    2
    15     7     9   am
    16     9    13    1
    17    13    14   ar
    18    14    15   ar
    19    15    16   ar
    20    16    17    1
    21    16    18   ar
    22    18    19    1
    23    18    20   ar
    24     6    10    1
    25    10    11    1
    26    25    26    1
    27    26    21    1
    28    11     3    1
    29    20    13   ar
    30    24    27    1
    31     9    12    1
@<TRIPOS>MOLECULE
*****
 29 31 0 0 0
SMALL
GASTEIGER

@<TRIPOS>ATOM
      1 C         142.6585  142.3334  160.3824 C.2     1  UNL1        0.2414
      2 O         143.3018  143.6336  160.0005 O.2     1  UNL1       -0.2734
      3 N         142.7979  141.1368  159.4888 N.am    1  UNL1       -0.2749
      4 C         142.1547  139.8366  159.8706 C.3     1  UNL1        0.1150
      5 C         142.2941  138.6399  158.9769 C.3     1  UNL1        0.1165
      6 N         143.0767  138.7434  157.7015 N.am    1  UNL1       -0.2605
      7 C         143.2161  137.5468  156.8079 C.2     1  UNL1        0.3078
      8 O         143.9988  137.6503  155.5324 O.2     1  UNL1       -0.2522
      9 N         142.5729  136.2466  157.1897 N.am    1  UNL1       -0.2681
     10 C         143.7199  140.0436  157.3197 C.3     1  UNL1        0.1165
     11 C         143.5806  141.2403  158.2133 C.3     1  UNL1        0.1150
     12 H         142.0593  136.1787  158.0269 H       1  UNL1        0.1564
     13 C         142.7123  135.0499  156.2961 C.ar    1  UNL1        0.0525
     14 C         141.8409  134.9144  155.0827 C.ar    1  UNL1        0.0156
     15 C         141.9803  133.7178  154.1890 C.ar    1  UNL1        0.0135
     16 C         142.9911  132.6567  154.5087 C.ar    1  UNL1        0.0683
     17 CL        143.1305  131.4600  153.6151 Cl      1  UNL1       -0.0814
     18 C         143.8625  132.7922  155.7221 C.ar    1  UNL1        0.0694
     19 CL        144.8734  131.7310  156.0418 Cl      1  UNL1       -0.0813
     20 C         143.7232  133.9888  156.6157 C.ar    1  UNL1        0.0270
     21 N         139.6368  142.4846  162.9507 N.3     1  UNL1       -0.2700
     22 C         140.3107  142.0230  164.2087 C.3     1  UNL1        0.0894
     23 C         141.7672  141.6648  164.1914 C.3     1  UNL1        0.0865
     24 N         142.5498  141.7683  162.9159 N.3     1  UNL1       -0.2890
     25 C         141.8759  142.2299  161.6579 C.3     1  UNL1        0.1479
     26 C         140.4194  142.5881  161.6753 C.3     1  UNL1        0.0975
     27 H         142.9256  140.8395  162.7249 H       1  UNL1        0.1237
     28 C         137.7205  144.0796  163.6812 C.3     1  UNL1        0.0188
     29 C         138.1803  142.8427  162.9680 C.3     1  UNL1        0.0722
@<TRIPOS>BOND
     1    28    29    1
     2    29    21    1
     3    21    22    1
     4    22    23    1
     5    23    24    1
     6    24    25    1
     7    25     1    1
     8     1     2    2
     9     1     3   am
    10     3     4    1
    11     4     5    1
    12     5     6    1
    13     6     7   am
    14     7     8    2
    15     7     9   am
    16     9    13    1
    17    13    14   ar
    18    14    15   ar
    19    15    16   ar
    20    16    17    1
    21    16    18   ar
    22    18    19    1
    23    18    20   ar
    24     6    10    1
    25    10    11    1
    26    25    26    1
    27    26    21    1
    28    11     3    1
    29    20    13   ar
    30    24    27    1
    31     9    12    1
