@<TRIPOS>MOLECULE
*****
 29 32 0 0 0
SMALL
GASTEIGER

@<TRIPOS>ATOM
      1 C         139.1851  138.4503  163.0855 C.3     1  UNL1        0.0559
      2 C         139.3724  139.4746  164.1651 C.3     1  UNL1        0.2097
      3 N         139.5541  139.1918  165.6270 N.pl3   1  UNL1       -0.2170
      4 C         139.7049  140.5041  166.3378 C.2     1  UNL1        0.3340
      5 N         139.6166  141.5980  165.3152 N.2     1  UNL1       -0.0600
      6 C         139.4111  140.9618  163.9725 C.3     1  UNL1        0.2515
      7 H         139.5712  138.3013  166.0463 H       1  UNL1        0.2923
      8 C         139.2046  140.6215  162.5262 C.ar    1  UNL1        0.0297
      9 C         137.8187  140.3927  162.0000 C.ar    1  UNL1        0.0025
     10 C         137.6122  140.0525  160.5537 C.ar    1  UNL1        0.0295
     11 C         138.7916  139.9411  159.6337 C.ar    1  UNL1        0.1401
     12 F         138.5852  139.6008  158.1875 F       1  UNL1       -0.2042
     13 C         140.1777  140.1699  160.1599 C.ar    1  UNL1        0.0295
     14 C         140.3841  140.5101  161.6062 C.ar    1  UNL1        0.0025
     15 C         139.4066  142.3777  163.4774 C.ar    1  UNL1        0.0488
     16 C         140.6960  143.1349  163.3589 C.ar    1  UNL1        0.0057
     17 C         140.6914  144.5509  162.8639 C.ar    1  UNL1        0.0495
     18 C         139.3975  145.2096  162.4873 C.ar    1  UNL1        0.2223
     19 F         139.3931  146.6256  161.9922 F       1  UNL1       -0.1832
     20 N         138.1082  144.4524  162.6058 N.ar    1  UNL1       -0.2166
     21 C         138.1126  143.0364  163.1008 C.ar    1  UNL1        0.1014
     22 C         139.9085  140.6899  167.8123 C.ar    1  UNL1        0.1633
     23 C         140.9416  141.6562  168.3109 C.ar    1  UNL1        0.0370
     24 C         141.1451  141.8419  169.7854 C.ar    1  UNL1        0.0717
     25 C         140.3154  141.0613  170.7612 C.ar    1  UNL1        0.0310
     26 C         139.2823  140.0949  170.2626 C.ar    1  UNL1        0.0998
     27 N         139.0788  139.9092  168.7881 N.ar    1  UNL1       -0.2364
     28 C         142.1783  142.8083  170.2841 C.1     1  UNL1        0.1005
     29 N         143.2114  143.7747  170.7828 N.1     1  UNL1       -0.1908
@<TRIPOS>BOND
     1     2     1    1
     2     2     3    1
     3     3     4    1
     4     4    22    1
     5    22    23   ar
     6    23    24   ar
     7    24    28    1
     8    28    29    3
     9    24    25   ar
    10    25    26   ar
    11    26    27   ar
    12     4     5    2
    13     5     6    1
    14     6     8    1
    15     8     9   ar
    16     9    10   ar
    17    10    11   ar
    18    11    12    1
    19    11    13   ar
    20    13    14   ar
    21     6    15    1
    22    15    16   ar
    23    16    17   ar
    24    17    18   ar
    25    18    19    1
    26    18    20   ar
    27    20    21   ar
    28     6     2    1
    29    14     8   ar
    30    21    15   ar
    31    27    22   ar
    32     3     7    1
@<TRIPOS>MOLECULE
*****
 29 32 0 0 0
SMALL
GASTEIGER

@<TRIPOS>ATOM
      1 C         140.9602  137.5819  164.7551 C.3     1  UNL1        0.0559
      2 C         140.7943  138.1678  163.3843 C.3     1  UNL1        0.2097
      3 N         141.2902  137.5666  162.1026 N.pl3   1  UNL1       -0.2170
      4 C         140.9059  138.4849  160.9806 C.2     1  UNL1        0.3340
      5 N         140.1725  139.6537  161.5688 N.2     1  UNL1       -0.0600
      6 C         140.1035  139.4577  163.0543 C.3     1  UNL1        0.2515
      7 H         141.7817  136.7182  162.0135 H       1  UNL1        0.2923
      8 C         139.8804  139.5347  164.5356 C.ar    1  UNL1        0.0297
      9 C         140.9279  140.1415  165.4213 C.ar    1  UNL1        0.0025
     10 C         140.7049  140.2186  166.9027 C.ar    1  UNL1        0.0295
     11 C         139.4343  139.6888  167.4983 C.ar    1  UNL1        0.1401
     12 F         139.2112  139.7658  168.9796 F       1  UNL1       -0.2042
     13 C         138.3866  139.0819  166.6126 C.ar    1  UNL1        0.0295
     14 C         138.6097  139.0049  165.1313 C.ar    1  UNL1        0.0025
     15 C         139.3660  140.7638  163.0341 C.ar    1  UNL1        0.0488
     16 C         140.1045  142.0459  163.2806 C.ar    1  UNL1        0.0057
     17 C         139.3670  143.3520  163.2604 C.ar    1  UNL1        0.0495
     18 C         137.8911  143.3758  162.9937 C.ar    1  UNL1        0.2223
     19 F         137.1536  144.6819  162.9735 F       1  UNL1       -0.1832
     20 N         137.1527  142.0937  162.7472 N.ar    1  UNL1       -0.2166
     21 C         137.8901  140.7876  162.7674 C.ar    1  UNL1        0.1014
     22 C         141.2029  138.2719  159.5258 C.ar    1  UNL1        0.1633
     23 C         140.0842  138.0022  158.5636 C.ar    1  UNL1        0.0370
     24 C         140.3812  137.7892  157.1088 C.ar    1  UNL1        0.0717
     25 C         141.7969  137.8458  156.6163 C.ar    1  UNL1        0.0310
     26 C         142.9156  138.1154  157.5784 C.ar    1  UNL1        0.0998
     27 N         142.6185  138.3285  159.0332 N.ar    1  UNL1       -0.2364
     28 C         139.2625  137.5195  156.1466 C.1     1  UNL1        0.1005
     29 N         138.1438  137.2499  155.1844 N.1     1  UNL1       -0.1908
@<TRIPOS>BOND
     1     2     1    1
     2     2     3    1
     3     3     4    1
     4     4    22    1
     5    22    23   ar
     6    23    24   ar
     7    24    28    1
     8    28    29    3
     9    24    25   ar
    10    25    26   ar
    11    26    27   ar
    12     4     5    2
    13     5     6    1
    14     6     8    1
    15     8     9   ar
    16     9    10   ar
    17    10    11   ar
    18    11    12    1
    19    11    13   ar
    20    13    14   ar
    21     6    15    1
    22    15    16   ar
    23    16    17   ar
    24    17    18   ar
    25    18    19    1
    26    18    20   ar
    27    20    21   ar
    28     6     2    1
    29    14     8   ar
    30    21    15   ar
    31    27    22   ar
    32     3     7    1
@<TRIPOS>MOLECULE
*****
 29 32 0 0 0
SMALL
GASTEIGER

@<TRIPOS>ATOM
      1 C         141.3306  137.6482  163.4513 C.3     1  UNL1        0.0559
      2 C         141.1628  138.6971  164.5103 C.3     1  UNL1        0.2097
      3 N         141.7012  138.6320  165.9089 N.pl3   1  UNL1       -0.2170
      4 C         141.2983  139.8899  166.6197 C.2     1  UNL1        0.3340
      5 N         140.5109  140.7325  165.6605 N.2     1  UNL1       -0.0600
      6 C         140.4271  139.9953  164.3569 C.3     1  UNL1        0.2515
      7 H         142.2268  137.8934  166.2928 H       1  UNL1        0.2923
      8 C         140.1787  139.5081  162.9601 C.ar    1  UNL1        0.0297
      9 C         138.9844  138.6494  162.6666 C.ar    1  UNL1        0.0025
     10 C         138.7359  138.1622  161.2698 C.ar    1  UNL1        0.0295
     11 C         139.6818  138.5338  160.1666 C.ar    1  UNL1        0.1401
     12 F         139.4333  138.0467  158.7698 F       1  UNL1       -0.2042
     13 C         140.8762  139.3926  160.4601 C.ar    1  UNL1        0.0295
     14 C         141.1246  139.8797  161.8568 C.ar    1  UNL1        0.0025
     15 C         139.6395  141.1916  163.9114 C.ar    1  UNL1        0.0488
     16 C         138.1446  141.1939  164.0352 C.ar    1  UNL1        0.0057
     17 C         137.3570  142.3902  163.5896 C.ar    1  UNL1        0.0495
     18 C         138.0643  143.5842  163.0203 C.ar    1  UNL1        0.2223
     19 F         137.2766  144.7806  162.5748 F       1  UNL1       -0.1832
     20 N         139.5590  143.5819  162.8965 N.ar    1  UNL1       -0.2166
     21 C         140.3468  142.3856  163.3421 C.ar    1  UNL1        0.1014
     22 C         141.6254  140.2433  168.0404 C.ar    1  UNL1        0.1633
     23 C         142.7552  141.1839  168.3382 C.ar    1  UNL1        0.0370
     24 C         143.0823  141.5372  169.7588 C.ar    1  UNL1        0.0717
     25 C         142.2796  140.9499  170.8816 C.ar    1  UNL1        0.0310
     26 C         141.1498  140.0092  170.5838 C.ar    1  UNL1        0.0998
     27 N         140.8228  139.6559  169.1632 N.ar    1  UNL1       -0.2364
     28 C         144.2121  142.4779  170.0566 C.1     1  UNL1        0.1005
     29 N         145.3418  143.4186  170.3545 N.1     1  UNL1       -0.1908
@<TRIPOS>BOND
     1     2     1    1
     2     2     3    1
     3     3     4    1
     4     4    22    1
     5    22    23   ar
     6    23    24   ar
     7    24    28    1
     8    28    29    3
     9    24    25   ar
    10    25    26   ar
    11    26    27   ar
    12     4     5    2
    13     5     6    1
    14     6     8    1
    15     8     9   ar
    16     9    10   ar
    17    10    11   ar
    18    11    12    1
    19    11    13   ar
    20    13    14   ar
    21     6    15    1
    22    15    16   ar
    23    16    17   ar
    24    17    18   ar
    25    18    19    1
    26    18    20   ar
    27    20    21   ar
    28     6     2    1
    29    14     8   ar
    30    21    15   ar
    31    27    22   ar
    32     3     7    1
@<TRIPOS>MOLECULE
*****
 29 32 0 0 0
SMALL
GASTEIGER

@<TRIPOS>ATOM
      1 C         144.4317  139.7138  162.8897 C.3     1  UNL1        0.0559
      2 C         143.6329  140.3028  164.0143 C.3     1  UNL1        0.2097
      3 N         143.5546  139.7694  165.4141 N.pl3   1  UNL1       -0.2170
      4 C         142.6454  140.6657  166.2016 C.2     1  UNL1        0.3340
      5 N         142.1618  141.7531  165.2885 N.2     1  UNL1       -0.0600
      6 C         142.7721  141.5289  163.9368 C.3     1  UNL1        0.2515
      7 H         144.0184  138.9711  165.7559 H       1  UNL1        0.2923
      8 C         143.2221  141.5624  162.5062 C.ar    1  UNL1        0.0297
      9 C         144.3822  142.4244  162.1050 C.ar    1  UNL1        0.0025
     10 C         144.8323  142.4580  160.6744 C.ar    1  UNL1        0.0295
     11 C         144.1222  141.6295  159.6452 C.ar    1  UNL1        0.1401
     12 F         144.5722  141.6631  158.2147 F       1  UNL1       -0.2042
     13 C         142.9620  140.7674  160.0465 C.ar    1  UNL1        0.0295
     14 C         142.5120  140.7339  161.4770 C.ar    1  UNL1        0.0025
     15 C         142.0054  142.7619  163.5601 C.ar    1  UNL1        0.0488
     16 C         142.5382  144.1164  163.9227 C.ar    1  UNL1        0.0057
     17 C         141.7715  145.3494  163.5460 C.ar    1  UNL1        0.0495
     18 C         140.4720  145.2279  162.8067 C.ar    1  UNL1        0.2223
     19 F         139.7054  146.4610  162.4301 F       1  UNL1       -0.1832
     20 N         139.9392  143.8735  162.4441 N.ar    1  UNL1       -0.2166
     21 C         140.7059  142.6404  162.8208 C.ar    1  UNL1        0.1014
     22 C         142.2834  140.5031  167.6482 C.ar    1  UNL1        0.1633
     23 C         141.3992  141.5126  168.3181 C.ar    1  UNL1        0.0370
     24 C         141.0372  141.3500  169.7646 C.ar    1  UNL1        0.0717
     25 C         141.5595  140.1777  170.5412 C.ar    1  UNL1        0.0310
     26 C         142.4437  139.1682  169.8713 C.ar    1  UNL1        0.0998
     27 N         142.8057  139.3308  168.4248 N.ar    1  UNL1       -0.2364
     28 C         140.1530  142.3596  170.4346 C.1     1  UNL1        0.1005
     29 N         139.2688  143.3691  171.1047 N.1     1  UNL1       -0.1908
@<TRIPOS>BOND
     1     2     1    1
     2     2     3    1
     3     3     4    1
     4     4    22    1
     5    22    23   ar
     6    23    24   ar
     7    24    28    1
     8    28    29    3
     9    24    25   ar
    10    25    26   ar
    11    26    27   ar
    12     4     5    2
    13     5     6    1
    14     6     8    1
    15     8     9   ar
    16     9    10   ar
    17    10    11   ar
    18    11    12    1
    19    11    13   ar
    20    13    14   ar
    21     6    15    1
    22    15    16   ar
    23    16    17   ar
    24    17    18   ar
    25    18    19    1
    26    18    20   ar
    27    20    21   ar
    28     6     2    1
    29    14     8   ar
    30    21    15   ar
    31    27    22   ar
    32     3     7    1
@<TRIPOS>MOLECULE
*****
 29 32 0 0 0
SMALL
GASTEIGER

@<TRIPOS>ATOM
      1 C         142.4976  144.7092  163.4394 C.3     1  UNL1        0.0559
      2 C         141.8821  143.5523  164.1692 C.3     1  UNL1        0.2097
      3 N         142.1913  143.1316  165.5753 N.pl3   1  UNL1       -0.2170
      4 C         141.3496  141.9322  165.8961 C.2     1  UNL1        0.3340
      5 N         140.5201  141.6115  164.6882 N.2     1  UNL1       -0.0600
      6 C         140.8492  142.6128  163.6209 C.3     1  UNL1        0.2515
      7 H         142.8339  143.5664  166.1814 H       1  UNL1        0.2923
      8 C         140.9675  143.4544  162.3849 C.ar    1  UNL1        0.0297
      9 C         141.9384  143.0721  161.3073 C.ar    1  UNL1        0.0025
     10 C         142.0568  143.9138  160.0713 C.ar    1  UNL1        0.0295
     11 C         141.2043  145.1377  159.9129 C.ar    1  UNL1        0.1401
     12 F         141.3226  145.9793  158.6770 F       1  UNL1       -0.2042
     13 C         140.2333  145.5201  160.9906 C.ar    1  UNL1        0.0295
     14 C         140.1150  144.6784  162.2265 C.ar    1  UNL1        0.0025
     15 C         139.8410  141.8493  162.8142 C.ar    1  UNL1        0.0488
     16 C         140.2737  140.6688  161.9962 C.ar    1  UNL1        0.0057
     17 C         139.2656  139.9053  161.1895 C.ar    1  UNL1        0.0495
     18 C         137.8248  140.3224  161.2008 C.ar    1  UNL1        0.2223
     19 F         136.8167  139.5588  160.3940 F       1  UNL1       -0.1832
     20 N         137.3921  141.5028  162.0187 N.ar    1  UNL1       -0.2166
     21 C         138.4003  142.2664  162.8255 C.ar    1  UNL1        0.1014
     22 C         141.3392  141.1846  167.1966 C.ar    1  UNL1        0.1633
     23 C         140.0440  140.9477  167.9152 C.ar    1  UNL1        0.0370
     24 C         140.0337  140.2002  169.2155 C.ar    1  UNL1        0.0717
     25 C         141.3185  139.6896  169.7974 C.ar    1  UNL1        0.0310
     26 C         142.6137  139.9266  169.0789 C.ar    1  UNL1        0.0998
     27 N         142.6240  140.6741  167.7785 N.ar    1  UNL1       -0.2364
     28 C         138.7385  139.9632  169.9342 C.1     1  UNL1        0.1005
     29 N         137.4434  139.7261  170.6527 N.1     1  UNL1       -0.1908
@<TRIPOS>BOND
     1     2     1    1
     2     2     3    1
     3     3     4    1
     4     4    22    1
     5    22    23   ar
     6    23    24   ar
     7    24    28    1
     8    28    29    3
     9    24    25   ar
    10    25    26   ar
    11    26    27   ar
    12     4     5    2
    13     5     6    1
    14     6     8    1
    15     8     9   ar
    16     9    10   ar
    17    10    11   ar
    18    11    12    1
    19    11    13   ar
    20    13    14   ar
    21     6    15    1
    22    15    16   ar
    23    16    17   ar
    24    17    18   ar
    25    18    19    1
    26    18    20   ar
    27    20    21   ar
    28     6     2    1
    29    14     8   ar
    30    21    15   ar
    31    27    22   ar
    32     3     7    1
@<TRIPOS>MOLECULE
*****
 29 32 0 0 0
SMALL
GASTEIGER

@<TRIPOS>ATOM
      1 C         142.4580  139.5335  167.8048 C.3     1  UNL1        0.0559
      2 C         142.1067  139.6767  166.3535 C.3     1  UNL1        0.2097
      3 N         142.6829  138.8757  165.2237 N.pl3   1  UNL1       -0.2170
      4 C         142.0498  139.3499  163.9492 C.2     1  UNL1        0.3340
      5 N         141.0823  140.4439  164.2914 N.2     1  UNL1       -0.0600
      6 C         141.1174  140.6459  165.7773 C.3     1  UNL1        0.2515
      7 H         143.3581  138.1638  165.3045 H       1  UNL1        0.2923
      8 C         140.9380  141.0689  167.2051 C.ar    1  UNL1        0.0297
      9 C         141.8650  142.0814  167.8095 C.ar    1  UNL1        0.0025
     10 C         141.6856  142.5045  169.2375 C.ar    1  UNL1        0.0295
     11 C         140.5791  141.9150  170.0609 C.ar    1  UNL1        0.1401
     12 F         140.3996  142.3381  171.4888 F       1  UNL1       -0.2042
     13 C         139.6519  140.9024  169.4565 C.ar    1  UNL1        0.0295
     14 C         139.8314  140.4794  168.0286 C.ar    1  UNL1        0.0025
     15 C         140.0907  141.7035  165.4996 C.ar    1  UNL1        0.0488
     16 C         140.4095  143.1456  165.7617 C.ar    1  UNL1        0.0057
     17 C         139.3828  144.2032  165.4840 C.ar    1  UNL1        0.0495
     18 C         138.0371  143.8188  164.9441 C.ar    1  UNL1        0.2223
     19 F         137.0103  144.8765  164.6664 F       1  UNL1       -0.1832
     20 N         137.7182  142.3768  164.6821 N.ar    1  UNL1       -0.2166
     21 C         138.7450  141.3190  164.9598 C.ar    1  UNL1        0.1014
     22 C         142.3343  138.8226  162.5740 C.ar    1  UNL1        0.1633
     23 C         141.2857  138.9111  161.5051 C.ar    1  UNL1        0.0370
     24 C         141.5703  138.3839  160.1300 C.ar    1  UNL1        0.0717
     25 C         142.9033  137.7681  159.8238 C.ar    1  UNL1        0.0310
     26 C         143.9519  137.6796  160.8927 C.ar    1  UNL1        0.0998
     27 N         143.6674  138.2069  162.2678 N.ar    1  UNL1       -0.2364
     28 C         140.5217  138.4723  159.0610 C.1     1  UNL1        0.1005
     29 N         139.4732  138.5608  157.9920 N.1     1  UNL1       -0.1908
@<TRIPOS>BOND
     1     2     1    1
     2     2     3    1
     3     3     4    1
     4     4    22    1
     5    22    23   ar
     6    23    24   ar
     7    24    28    1
     8    28    29    3
     9    24    25   ar
    10    25    26   ar
    11    26    27   ar
    12     4     5    2
    13     5     6    1
    14     6     8    1
    15     8     9   ar
    16     9    10   ar
    17    10    11   ar
    18    11    12    1
    19    11    13   ar
    20    13    14   ar
    21     6    15    1
    22    15    16   ar
    23    16    17   ar
    24    17    18   ar
    25    18    19    1
    26    18    20   ar
    27    20    21   ar
    28     6     2    1
    29    14     8   ar
    30    21    15   ar
    31    27    22   ar
    32     3     7    1
@<TRIPOS>MOLECULE
*****
 29 32 0 0 0
SMALL
GASTEIGER

@<TRIPOS>ATOM
      1 C         141.5889  145.4270  163.3076 C.3     1  UNL1        0.0559
      2 C         141.2902  144.8738  161.9457 C.3     1  UNL1        0.2097
      3 N         141.7289  145.4644  160.6385 N.pl3   1  UNL1       -0.2170
      4 C         141.2103  144.5884  159.5368 C.2     1  UNL1        0.3340
      5 N         140.4511  143.4565  160.1631 N.2     1  UNL1       -0.0600
      6 C         140.5005  143.6328  161.6519 C.3     1  UNL1        0.2515
      7 H         142.2633  146.2832  160.5238 H       1  UNL1        0.2923
      8 C         140.3795  143.5459  163.1445 C.ar    1  UNL1        0.0297
      9 C         139.2707  144.2685  163.8503 C.ar    1  UNL1        0.0025
     10 C         139.1497  144.1817  165.3430 C.ar    1  UNL1        0.0295
     11 C         140.1375  143.3723  166.1297 C.ar    1  UNL1        0.1401
     12 F         140.0166  143.2854  167.6222 F       1  UNL1       -0.2042
     13 C         141.2465  142.6497  165.4238 C.ar    1  UNL1        0.0295
     14 C         141.3675  142.7365  163.9312 C.ar    1  UNL1        0.0025
     15 C         139.6855  142.3737  161.6701 C.ar    1  UNL1        0.0488
     16 C         140.3635  141.0398  161.5649 C.ar    1  UNL1        0.0057
     17 C         139.5485  139.7807  161.5832 C.ar    1  UNL1        0.0495
     18 C         138.0555  139.8554  161.7066 C.ar    1  UNL1        0.2223
     19 F         137.2405  138.5962  161.7248 F       1  UNL1       -0.1832
     20 N         137.3775  141.1892  161.8118 N.ar    1  UNL1       -0.2166
     21 C         138.1925  142.4484  161.7935 C.ar    1  UNL1        0.1014
     22 C         141.4149  144.8063  158.0669 C.ar    1  UNL1        0.1633
     23 C         140.6704  145.8998  157.3599 C.ar    1  UNL1        0.0370
     24 C         140.8751  146.1175  155.8900 C.ar    1  UNL1        0.0717
     25 C         141.8243  145.2418  155.1271 C.ar    1  UNL1        0.0310
     26 C         142.5688  144.1483  155.8340 C.ar    1  UNL1        0.0998
     27 N         142.3642  143.9305  157.3039 N.ar    1  UNL1       -0.2364
     28 C         140.1305  147.2111  155.1830 C.1     1  UNL1        0.1005
     29 N         139.3860  148.3046  154.4759 N.1     1  UNL1       -0.1908
@<TRIPOS>BOND
     1     2     1    1
     2     2     3    1
     3     3     4    1
     4     4    22    1
     5    22    23   ar
     6    23    24   ar
     7    24    28    1
     8    28    29    3
     9    24    25   ar
    10    25    26   ar
    11    26    27   ar
    12     4     5    2
    13     5     6    1
    14     6     8    1
    15     8     9   ar
    16     9    10   ar
    17    10    11   ar
    18    11    12    1
    19    11    13   ar
    20    13    14   ar
    21     6    15    1
    22    15    16   ar
    23    16    17   ar
    24    17    18   ar
    25    18    19    1
    26    18    20   ar
    27    20    21   ar
    28     6     2    1
    29    14     8   ar
    30    21    15   ar
    31    27    22   ar
    32     3     7    1
@<TRIPOS>MOLECULE
*****
 29 32 0 0 0
SMALL
GASTEIGER

@<TRIPOS>ATOM
      1 C         144.7416  141.0037  162.6717 C.3     1  UNL1        0.0559
      2 C         143.7321  140.8170  163.7654 C.3     1  UNL1        0.2097
      3 N         143.9209  141.1742  165.2099 N.pl3   1  UNL1       -0.2170
      4 C         142.6620  140.8183  165.9438 C.2     1  UNL1        0.3340
      5 N         141.6952  140.2411  164.9528 N.2     1  UNL1       -0.0600
      6 C         142.3565  140.2403  163.6065 C.3     1  UNL1        0.2515
      7 H         144.7291  141.5724  165.6067 H       1  UNL1        0.2923
      8 C         142.7474  140.1134  162.1639 C.ar    1  UNL1        0.0297
      9 C         142.5562  141.2719  161.2304 C.ar    1  UNL1        0.0025
     10 C         142.9470  141.1450  159.7877 C.ar    1  UNL1        0.0295
     11 C         143.5291  139.8598  159.2786 C.ar    1  UNL1        0.1401
     12 F         143.9199  139.7329  157.8360 F       1  UNL1       -0.2042
     13 C         143.7203  138.7012  160.2122 C.ar    1  UNL1        0.0295
     14 C         143.3294  138.8281  161.6548 C.ar    1  UNL1        0.0025
     15 C         141.0626  139.6371  163.1459 C.ar    1  UNL1        0.0488
     16 C         140.0297  140.4966  162.4794 C.ar    1  UNL1        0.0057
     17 C         138.7358  139.8934  162.0189 C.ar    1  UNL1        0.0495
     18 C         138.4749  138.4307  162.2249 C.ar    1  UNL1        0.2223
     19 F         137.1810  137.8276  161.7643 F       1  UNL1       -0.1832
     20 N         139.5078  137.5713  162.8914 N.ar    1  UNL1       -0.2166
     21 C         140.8018  138.1744  163.3520 C.ar    1  UNL1        0.1014
     22 C         142.4136  141.0065  167.4111 C.ar    1  UNL1        0.1633
     23 C         141.6874  142.2251  167.8986 C.ar    1  UNL1        0.0370
     24 C         141.4391  142.4133  169.3658 C.ar    1  UNL1        0.0717
     25 C         141.9169  141.3829  170.3456 C.ar    1  UNL1        0.0310
     26 C         142.6431  140.1643  169.8581 C.ar    1  UNL1        0.0998
     27 N         142.8914  139.9761  168.3909 N.ar    1  UNL1       -0.2364
     28 C         140.7129  143.6319  169.8534 C.1     1  UNL1        0.1005
     29 N         139.9867  144.8505  170.3409 N.1     1  UNL1       -0.1908
@<TRIPOS>BOND
     1     2     1    1
     2     2     3    1
     3     3     4    1
     4     4    22    1
     5    22    23   ar
     6    23    24   ar
     7    24    28    1
     8    28    29    3
     9    24    25   ar
    10    25    26   ar
    11    26    27   ar
    12     4     5    2
    13     5     6    1
    14     6     8    1
    15     8     9   ar
    16     9    10   ar
    17    10    11   ar
    18    11    12    1
    19    11    13   ar
    20    13    14   ar
    21     6    15    1
    22    15    16   ar
    23    16    17   ar
    24    17    18   ar
    25    18    19    1
    26    18    20   ar
    27    20    21   ar
    28     6     2    1
    29    14     8   ar
    30    21    15   ar
    31    27    22   ar
    32     3     7    1
@<TRIPOS>MOLECULE
*****
 29 32 0 0 0
SMALL
GASTEIGER

@<TRIPOS>ATOM
      1 C         144.3287  141.5805  163.4558 C.3     1  UNL1        0.0559
      2 C         143.1829  141.3496  164.3960 C.3     1  UNL1        0.2097
      3 N         143.1234  141.7724  165.8340 N.pl3   1  UNL1       -0.2170
      4 C         141.7992  141.3394  166.3900 C.2     1  UNL1        0.3340
      5 N         141.0403  140.6491  165.2957 N.2     1  UNL1       -0.0600
      6 C         141.8955  140.6554  164.0634 C.3     1  UNL1        0.2515
      7 H         143.8295  142.2501  166.3264 H       1  UNL1        0.2923
      8 C         142.5083  140.5102  162.7020 C.ar    1  UNL1        0.0297
      9 C         143.4051  139.3454  162.4036 C.ar    1  UNL1        0.0025
     10 C         144.0180  139.2002  161.0422 C.ar    1  UNL1        0.0295
     11 C         143.7340  140.2197  159.9793 C.ar    1  UNL1        0.1401
     12 F         144.3468  140.0745  158.6179 F       1  UNL1       -0.2042
     13 C         142.8371  141.3845  160.2776 C.ar    1  UNL1        0.0295
     14 C         142.2243  141.5297  161.6390 C.ar    1  UNL1        0.0025
     15 C         140.7362  139.9308  163.4461 C.ar    1  UNL1        0.0488
     16 C         140.7839  138.4404  163.2833 C.ar    1  UNL1        0.0057
     17 C         139.6246  137.7159  162.6660 C.ar    1  UNL1        0.0495
     18 C         138.4176  138.4817  162.2114 C.ar    1  UNL1        0.2223
     19 F         137.2583  137.7571  161.5941 F       1  UNL1       -0.1832
     20 N         138.3699  139.9720  162.3742 N.ar    1  UNL1       -0.2166
     21 C         139.5292  140.6967  162.9915 C.ar    1  UNL1        0.1014
     22 C         141.3184  141.5584  167.7939 C.ar    1  UNL1        0.1633
     23 C         140.1434  140.7843  168.3136 C.ar    1  UNL1        0.0370
     24 C         139.6626  141.0033  169.7175 C.ar    1  UNL1        0.0717
     25 C         140.3568  141.9965  170.6016 C.ar    1  UNL1        0.0310
     26 C         141.5317  142.7706  170.0819 C.ar    1  UNL1        0.0998
     27 N         142.0125  142.5516  168.6781 N.ar    1  UNL1       -0.2364
     28 C         138.4876  140.2291  170.2372 C.1     1  UNL1        0.1005
     29 N         137.3126  139.4550  170.7569 N.1     1  UNL1       -0.1908
@<TRIPOS>BOND
     1     2     1    1
     2     2     3    1
     3     3     4    1
     4     4    22    1
     5    22    23   ar
     6    23    24   ar
     7    24    28    1
     8    28    29    3
     9    24    25   ar
    10    25    26   ar
    11    26    27   ar
    12     4     5    2
    13     5     6    1
    14     6     8    1
    15     8     9   ar
    16     9    10   ar
    17    10    11   ar
    18    11    12    1
    19    11    13   ar
    20    13    14   ar
    21     6    15    1
    22    15    16   ar
    23    16    17   ar
    24    17    18   ar
    25    18    19    1
    26    18    20   ar
    27    20    21   ar
    28     6     2    1
    29    14     8   ar
    30    21    15   ar
    31    27    22   ar
    32     3     7    1
