@<TRIPOS>MOLECULE
*****
 28 31 0 0 0
SMALL
GASTEIGER

@<TRIPOS>ATOM
      1 N         138.4711  140.0767  157.5433 N.3     1  UNL1       -0.2711
      2 C         137.9466  140.2414  158.9389 C.3     1  UNL1        0.0939
      3 C         138.6644  139.6017  160.0903 C.3     1  UNL1        0.1123
      4 N         139.9067  138.7974  159.8460 N.am    1  UNL1       -0.2612
      5 C         140.6245  138.1578  160.9974 C.2     1  UNL1        0.3072
      6 O         141.8668  137.3534  160.7532 O.2     1  UNL1       -0.2523
      7 N         140.0999  138.3224  162.3930 N.am    1  UNL1       -0.2640
      8 C         140.8177  137.6827  163.5443 C.3     1  UNL1        0.0954
      9 C         140.2931  137.8474  164.9400 C.3     1  UNL1        0.0307
     10 C         139.0508  138.6517  165.1842 C.3     1  UNL1        0.0801
     11 C         138.3330  139.2914  164.0328 C.3     1  UNL1        0.0307
     12 C         138.8575  139.1268  162.6373 C.3     1  UNL1        0.0954
     13 C         140.4312  138.6328  158.4504 C.3     1  UNL1        0.1123
     14 C         139.7134  139.2724  157.2991 C.3     1  UNL1        0.0939
     15 C         138.5262  138.8164  166.5798 C.2     1  UNL1        0.2253
     16 O         137.3355  138.0240  167.0319 O.2     1  UNL1       -0.2749
     17 N         139.9146  141.0422  169.0849 N.am    1  UNL1       -0.2796
     18 C         140.8109  141.3689  168.1163 C.3     1  UNL1        0.0933
     19 C         140.9989  141.4394  167.9177 C.3     1  UNL1        0.0199
     20 C         139.9269  140.4294  167.6339 C.3     1  UNL1        0.0018
     21 C         138.9366  140.0670  168.7006 C.3     1  UNL1        0.0018
     22 C         139.0184  140.7146  170.0512 C.3     1  UNL1        0.0199
     23 C         140.0904  141.7246  170.3349 C.3     1  UNL1        0.0018
     24 C         141.0807  142.0870  169.2682 C.3     1  UNL1        0.0018
     25 C         140.0047  141.0737  168.9843 C.3     1  UNL1        0.0933
     26 C         136.2819  140.9921  156.4853 C.3     1  UNL1        0.0173
     27 C         137.7534  140.7164  156.3919 C.3     1  UNL1        0.0577
     28 C         138.5070  141.0804  155.1472 C.3     1  UNL1        0.0173
@<TRIPOS>BOND
     1    26    27    1
     2    27    28    1
     3    27     1    1
     4     1     2    1
     5     2     3    1
     6     3     4    1
     7     4     5   am
     8     5     6    2
     9     5     7   am
    10     7     8    1
    11     8     9    1
    12     9    10    1
    13    10    15    1
    14    15    16    2
    15    15    17   am
    16    17    18    1
    17    18    19    1
    18    19    20    1
    19    20    21    1
    20    21    22    1
    21    22    23    1
    22    23    24    1
    23    22    25    1
    24    10    11    1
    25    11    12    1
    26     4    13    1
    27    13    14    1
    28    14     1    1
    29    12     7    1
    30    25    17    1
    31    24    19    1
@<TRIPOS>MOLECULE
*****
 28 31 0 0 0
SMALL
GASTEIGER

@<TRIPOS>ATOM
      1 N         139.5207  138.5665  157.6390 N.3     1  UNL1       -0.2711
      2 C         139.5883  138.1302  159.0725 C.3     1  UNL1        0.0939
      3 C         139.2215  139.0889  160.1663 C.3     1  UNL1        0.1123
      4 N         138.7872  140.4838  159.8266 N.am    1  UNL1       -0.2612
      5 C         138.4204  141.4425  160.9204 C.2     1  UNL1        0.3072
      6 O         137.9861  142.8374  160.5807 O.2     1  UNL1       -0.2523
      7 N         138.4880  141.0063  162.3540 N.am    1  UNL1       -0.2640
      8 C         138.1212  141.9650  163.4478 C.3     1  UNL1        0.0954
      9 C         138.1889  141.5286  164.8814 C.3     1  UNL1        0.0307
     10 C         138.6232  140.1337  165.2211 C.3     1  UNL1        0.0801
     11 C         138.9900  139.1750  164.1273 C.3     1  UNL1        0.0307
     12 C         138.9224  139.6113  162.6938 C.3     1  UNL1        0.0954
     13 C         138.7196  140.9201  158.3931 C.3     1  UNL1        0.1123
     14 C         139.0863  139.9614  157.2993 C.3     1  UNL1        0.0939
     15 C         138.6908  139.6975  166.6546 C.2     1  UNL1        0.2253
     16 O         138.0279  138.4217  167.0824 O.2     1  UNL1       -0.2749
     17 N         140.3752  141.5037  169.3113 N.am    1  UNL1       -0.2796
     18 C         140.6854  142.3980  168.3354 C.3     1  UNL1        0.0933
     19 C         140.7518  142.5860  168.1354 C.3     1  UNL1        0.0199
     20 C         139.9473  141.3648  167.8017 C.3     1  UNL1        0.0018
     21 C         139.6036  140.3764  168.8764 C.3     1  UNL1        0.0018
     22 C         140.0644  140.6092  170.2847 C.3     1  UNL1        0.0199
     23 C         140.8689  141.8304  170.6184 C.3     1  UNL1        0.0018
     24 C         141.2126  142.8188  169.5438 C.3     1  UNL1        0.0018
     25 C         140.4054  141.5933  169.2099 C.3     1  UNL1        0.0933
     26 C         141.2538  136.9896  156.5166 C.3     1  UNL1        0.0173
     27 C         139.8874  137.6078  156.5452 C.3     1  UNL1        0.0577
     28 C         138.8878  137.2673  155.4800 C.3     1  UNL1        0.0173
@<TRIPOS>BOND
     1    26    27    1
     2    27    28    1
     3    27     1    1
     4     1     2    1
     5     2     3    1
     6     3     4    1
     7     4     5   am
     8     5     6    2
     9     5     7   am
    10     7     8    1
    11     8     9    1
    12     9    10    1
    13    10    15    1
    14    15    16    2
    15    15    17   am
    16    17    18    1
    17    18    19    1
    18    19    20    1
    19    20    21    1
    20    21    22    1
    21    22    23    1
    22    23    24    1
    23    22    25    1
    24    10    11    1
    25    11    12    1
    26     4    13    1
    27    13    14    1
    28    14     1    1
    29    12     7    1
    30    25    17    1
    31    24    19    1
@<TRIPOS>MOLECULE
*****
 28 31 0 0 0
SMALL
GASTEIGER

@<TRIPOS>ATOM
      1 N         139.7679  143.0346  158.9560 N.3     1  UNL1       -0.2711
      2 C         139.6112  143.0831  160.4470 C.3     1  UNL1        0.0939
      3 C         139.4387  141.8121  161.2246 C.3     1  UNL1        0.1123
      4 N         139.4227  140.4927  160.5114 N.am    1  UNL1       -0.2612
      5 C         139.2501  139.2217  161.2891 C.2     1  UNL1        0.3072
      6 O         139.2341  137.9022  160.5758 O.2     1  UNL1       -0.2523
      7 N         139.0935  139.2701  162.7800 N.am    1  UNL1       -0.2640
      8 C         138.9209  137.9991  163.5577 C.3     1  UNL1        0.0954
      9 C         138.7643  138.0476  165.0488 C.3     1  UNL1        0.0307
     10 C         138.7802  139.3670  165.7621 C.3     1  UNL1        0.0801
     11 C         138.9528  140.6380  164.9844 C.3     1  UNL1        0.0307
     12 C         139.1094  140.5896  163.4934 C.3     1  UNL1        0.0954
     13 C         139.5793  140.4442  159.0204 C.3     1  UNL1        0.1123
     14 C         139.7519  141.7152  158.2427 C.3     1  UNL1        0.0939
     15 C         138.6236  139.4155  167.2531 C.2     1  UNL1        0.2253
     16 O         137.6614  138.4898  167.9366 O.2     1  UNL1       -0.2749
     17 N         140.4230  141.6510  169.4716 N.am    1  UNL1       -0.2796
     18 C         141.0070  142.1082  168.3323 C.3     1  UNL1        0.0933
     19 C         141.1305  142.2058  168.0978 C.3     1  UNL1        0.0199
     20 C         140.1098  141.1090  168.0262 C.3     1  UNL1        0.0018
     21 C         139.4638  140.6026  169.2816 C.3     1  UNL1        0.0018
     22 C         139.8386  141.1929  170.6087 C.3     1  UNL1        0.0199
     23 C         140.8592  142.2898  170.6803 C.3     1  UNL1        0.0018
     24 C         141.5052  142.7962  169.4248 C.3     1  UNL1        0.0018
     25 C         140.4810  141.6958  169.3539 C.3     1  UNL1        0.0933
     26 C         139.5853  144.3476  156.7216 C.3     1  UNL1        0.0173
     27 C         139.9404  144.3056  158.1783 C.3     1  UNL1        0.0577
     28 C         140.4682  145.5346  158.8573 C.3     1  UNL1        0.0173
@<TRIPOS>BOND
     1    26    27    1
     2    27    28    1
     3    27     1    1
     4     1     2    1
     5     2     3    1
     6     3     4    1
     7     4     5   am
     8     5     6    2
     9     5     7   am
    10     7     8    1
    11     8     9    1
    12     9    10    1
    13    10    15    1
    14    15    16    2
    15    15    17   am
    16    17    18    1
    17    18    19    1
    18    19    20    1
    19    20    21    1
    20    21    22    1
    21    22    23    1
    22    23    24    1
    23    22    25    1
    24    10    11    1
    25    11    12    1
    26     4    13    1
    27    13    14    1
    28    14     1    1
    29    12     7    1
    30    25    17    1
    31    24    19    1
@<TRIPOS>MOLECULE
*****
 28 31 0 0 0
SMALL
GASTEIGER

@<TRIPOS>ATOM
      1 N         142.2335  136.9285  157.2422 N.3     1  UNL1       -0.2711
      2 C         142.5960  137.6366  158.5139 C.3     1  UNL1        0.0939
      3 C         141.6100  138.5606  159.1651 C.3     1  UNL1        0.1123
      4 N         140.2616  138.7765  158.5446 N.am    1  UNL1       -0.2612
      5 C         139.2756  139.7005  159.1959 C.2     1  UNL1        0.3072
      6 O         137.9271  139.9164  158.5754 O.2     1  UNL1       -0.2523
      7 N         139.6381  140.4086  160.4676 N.am    1  UNL1       -0.2640
      8 C         138.6521  141.3325  161.1188 C.3     1  UNL1        0.0954
      9 C         139.0146  142.0406  162.3905 C.3     1  UNL1        0.0307
     10 C         140.3631  141.8247  163.0110 C.3     1  UNL1        0.0801
     11 C         141.3491  140.9007  162.3597 C.3     1  UNL1        0.0307
     12 C         140.9866  140.1927  161.0881 C.3     1  UNL1        0.0954
     13 C         139.8991  138.0685  157.2730 C.3     1  UNL1        0.1123
     14 C         140.8851  137.1445  156.6217 C.3     1  UNL1        0.0939
     15 C         140.7256  142.5328  164.2827 C.2     1  UNL1        0.2253
     16 O         141.4031  143.8699  164.2296 O.2     1  UNL1       -0.2749
     17 N         140.0976  141.2752  167.6265 N.am    1  UNL1       -0.2796
     18 C         139.5540  140.2061  166.9864 C.3     1  UNL1        0.0933
     19 C         139.4402  139.9824  166.8570 C.3     1  UNL1        0.0199
     20 C         140.0133  141.1176  166.0616 C.3     1  UNL1        0.0018
     21 C         140.6138  142.2984  166.7652 C.3     1  UNL1        0.0018
     22 C         140.6411  142.3439  168.2642 C.3     1  UNL1        0.0199
     23 C         140.0680  141.2087  169.0597 C.3     1  UNL1        0.0018
     24 C         139.4675  140.0279  168.3561 C.3     1  UNL1        0.0018
     25 C         140.0428  141.1674  167.5587 C.3     1  UNL1        0.0933
     26 C         144.0564  136.4884  155.4441 C.3     1  UNL1        0.0173
     27 C         143.2195  136.0045  156.5910 C.3     1  UNL1        0.0577
     28 C         143.3685  134.5967  157.0866 C.3     1  UNL1        0.0173
@<TRIPOS>BOND
     1    26    27    1
     2    27    28    1
     3    27     1    1
     4     1     2    1
     5     2     3    1
     6     3     4    1
     7     4     5   am
     8     5     6    2
     9     5     7   am
    10     7     8    1
    11     8     9    1
    12     9    10    1
    13    10    15    1
    14    15    16    2
    15    15    17   am
    16    17    18    1
    17    18    19    1
    18    19    20    1
    19    20    21    1
    20    21    22    1
    21    22    23    1
    22    23    24    1
    23    22    25    1
    24    10    11    1
    25    11    12    1
    26     4    13    1
    27    13    14    1
    28    14     1    1
    29    12     7    1
    30    25    17    1
    31    24    19    1
@<TRIPOS>MOLECULE
*****
 28 31 0 0 0
SMALL
GASTEIGER

@<TRIPOS>ATOM
      1 N         142.9679  138.5210  158.0831 N.3     1  UNL1       -0.2711
      2 C         142.7015  138.1239  159.5048 C.3     1  UNL1        0.0939
      3 C         143.0204  139.0735  160.6212 C.3     1  UNL1        0.1123
      4 N         143.6059  140.4204  160.3159 N.am    1  UNL1       -0.2612
      5 C         143.9249  141.3700  161.4323 C.2     1  UNL1        0.3072
      6 O         144.5103  142.7169  161.1270 O.2     1  UNL1       -0.2523
      7 N         143.6584  140.9729  162.8540 N.am    1  UNL1       -0.2640
      8 C         143.9774  141.9226  163.9704 C.3     1  UNL1        0.0954
      9 C         143.7109  141.5253  165.3921 C.3     1  UNL1        0.0307
     10 C         143.1255  140.1785  165.6974 C.3     1  UNL1        0.0801
     11 C         142.8065  139.2288  164.5810 C.3     1  UNL1        0.0307
     12 C         143.0729  139.6260  163.1593 C.3     1  UNL1        0.0954
     13 C         143.8723  140.8175  158.8942 C.3     1  UNL1        0.1123
     14 C         143.5533  139.8679  157.7778 C.3     1  UNL1        0.0939
     15 C         142.8590  139.7813  167.1191 C.2     1  UNL1        0.2253
     16 O         143.3897  138.4813  167.6467 O.2     1  UNL1       -0.2749
     17 N         140.9725  141.7420  169.5179 N.am    1  UNL1       -0.2796
     18 C         140.8357  142.6284  168.4962 C.3     1  UNL1        0.0933
     19 C         140.8052  142.8150  168.2864 C.3     1  UNL1        0.0199
     20 C         141.5718  141.5432  168.0748 C.3     1  UNL1        0.0018
     21 C         141.7243  140.5634  169.2002 C.3     1  UNL1        0.0018
     22 C         141.1102  140.8553  170.5373 C.3     1  UNL1        0.0199
     23 C         140.3436  142.1271  170.7489 C.3     1  UNL1        0.0018
     24 C         140.1911  143.1069  169.6235 C.3     1  UNL1        0.0018
     25 C         140.9601  141.8307  169.4120 C.3     1  UNL1        0.0933
     26 C         141.2414  137.0923  156.7687 C.3     1  UNL1        0.0173
     27 C         142.6489  137.5713  156.9667 C.3     1  UNL1        0.0577
     28 C         143.7375  137.1007  156.0483 C.3     1  UNL1        0.0173
@<TRIPOS>BOND
     1    26    27    1
     2    27    28    1
     3    27     1    1
     4     1     2    1
     5     2     3    1
     6     3     4    1
     7     4     5   am
     8     5     6    2
     9     5     7   am
    10     7     8    1
    11     8     9    1
    12     9    10    1
    13    10    15    1
    14    15    16    2
    15    15    17   am
    16    17    18    1
    17    18    19    1
    18    19    20    1
    19    20    21    1
    20    21    22    1
    21    22    23    1
    22    23    24    1
    23    22    25    1
    24    10    11    1
    25    11    12    1
    26     4    13    1
    27    13    14    1
    28    14     1    1
    29    12     7    1
    30    25    17    1
    31    24    19    1
@<TRIPOS>MOLECULE
*****
 28 31 0 0 0
SMALL
GASTEIGER

@<TRIPOS>ATOM
      1 N         143.5092  140.1961  157.6235 N.3     1  UNL1       -0.2711
      2 C         143.9945  140.2382  159.0422 C.3     1  UNL1        0.0939
      3 C         143.1703  139.6252  160.1353 C.3     1  UNL1        0.1123
      4 N         141.8608  138.9702  159.8098 N.am    1  UNL1       -0.2612
      5 C         141.0365  138.3572  160.9029 C.2     1  UNL1        0.3072
      6 O         139.7270  137.7021  160.5773 O.2     1  UNL1       -0.2523
      7 N         141.5218  138.3993  162.3216 N.am    1  UNL1       -0.2640
      8 C         140.6975  137.7864  163.4147 C.3     1  UNL1        0.0954
      9 C         141.1829  137.8285  164.8334 C.3     1  UNL1        0.0307
     10 C         142.4924  138.4836  165.1590 C.3     1  UNL1        0.0801
     11 C         143.3166  139.0966  164.0659 C.3     1  UNL1        0.0307
     12 C         142.8313  139.0544  162.6472 C.3     1  UNL1        0.0954
     13 C         141.3755  138.9280  158.3911 C.3     1  UNL1        0.1123
     14 C         142.1997  139.5410  157.2980 C.3     1  UNL1        0.0939
     15 C         142.9776  138.5257  166.5777 C.2     1  UNL1        0.2253
     16 O         144.2908  137.8980  166.9401 O.2     1  UNL1       -0.2749
     17 N         141.2101  140.0653  169.3458 N.am    1  UNL1       -0.2796
     18 C         140.2705  140.3705  168.4119 C.3     1  UNL1        0.0933
     19 C         140.0731  140.4357  168.2207 C.3     1  UNL1        0.0199
     20 C         141.3093  139.6865  167.8201 C.3     1  UNL1        0.0018
     21 C         142.3476  139.3485  168.8485 C.3     1  UNL1        0.0018
     22 C         142.1497  139.7595  170.2774 C.3     1  UNL1        0.0199
     23 C         140.9135  140.5087  170.6780 C.3     1  UNL1        0.0018
     24 C         139.8752  140.8468  169.6496 C.3     1  UNL1        0.0018
     25 C         141.1158  140.0952  169.2486 C.3     1  UNL1        0.0933
     26 C         145.5318  141.6436  156.8728 C.3     1  UNL1        0.0173
     27 C         144.3335  140.8090  156.5304 C.3     1  UNL1        0.0577
     28 C         143.9594  140.5873  155.0948 C.3     1  UNL1        0.0173
@<TRIPOS>BOND
     1    26    27    1
     2    27    28    1
     3    27     1    1
     4     1     2    1
     5     2     3    1
     6     3     4    1
     7     4     5   am
     8     5     6    2
     9     5     7   am
    10     7     8    1
    11     8     9    1
    12     9    10    1
    13    10    15    1
    14    15    16    2
    15    15    17   am
    16    17    18    1
    17    18    19    1
    18    19    20    1
    19    20    21    1
    20    21    22    1
    21    22    23    1
    22    23    24    1
    23    22    25    1
    24    10    11    1
    25    11    12    1
    26     4    13    1
    27    13    14    1
    28    14     1    1
    29    12     7    1
    30    25    17    1
    31    24    19    1
@<TRIPOS>MOLECULE
*****
 28 31 0 0 0
SMALL
GASTEIGER

@<TRIPOS>ATOM
      1 N         139.9354  143.0511  158.5265 N.3     1  UNL1       -0.2711
      2 C         140.5491  142.9917  159.8939 C.3     1  UNL1        0.0939
      3 C         140.5607  141.6994  160.6554 C.3     1  UNL1        0.1123
      4 N         139.9584  140.4665  160.0495 N.am    1  UNL1       -0.2612
      5 C         139.9699  139.1742  160.8109 C.2     1  UNL1        0.3072
      6 O         139.3677  137.9413  160.2050 O.2     1  UNL1       -0.2523
      7 N         140.5837  139.1148  162.1783 N.am    1  UNL1       -0.2640
      8 C         140.5952  137.8225  162.9398 C.3     1  UNL1        0.0954
      9 C         141.2091  137.7632  164.3072 C.3     1  UNL1        0.0307
     10 C         141.8113  138.9961  164.9131 C.3     1  UNL1        0.0801
     11 C         141.7998  140.2884  164.1516 C.3     1  UNL1        0.0307
     12 C         141.1860  140.3478  162.7843 C.3     1  UNL1        0.0954
     13 C         139.3447  140.5259  158.6821 C.3     1  UNL1        0.1123
     14 C         139.3331  141.8182  157.9206 C.3     1  UNL1        0.0939
     15 C         142.4251  138.9368  166.2804 C.2     1  UNL1        0.2253
     16 O         143.8207  138.4150  166.4541 O.2     1  UNL1       -0.2749
     17 N         140.7953  139.9771  169.3494 N.am    1  UNL1       -0.2796
     18 C         139.7452  140.2803  168.5408 C.3     1  UNL1        0.0933
     19 C         139.5250  140.3446  168.3761 C.3     1  UNL1        0.0199
     20 C         140.7821  139.7764  167.7872 C.3     1  UNL1        0.0018
     21 C         141.9422  139.4409  168.6769 C.3     1  UNL1        0.0018
     22 C         141.8452  139.6736  170.1555 C.3     1  UNL1        0.0199
     23 C         140.5881  140.2418  170.7445 C.3     1  UNL1        0.0018
     24 C         139.4280  140.5772  169.8548 C.3     1  UNL1        0.0018
     25 C         140.6897  140.0072  169.2647 C.3     1  UNL1        0.0933
     26 C         140.4151  145.6021  158.4164 C.3     1  UNL1        0.0173
     27 C         139.9238  144.3434  157.7651 C.3     1  UNL1        0.0577
     28 C         139.4211  144.3770  156.3523 C.3     1  UNL1        0.0173
@<TRIPOS>BOND
     1    26    27    1
     2    27    28    1
     3    27     1    1
     4     1     2    1
     5     2     3    1
     6     3     4    1
     7     4     5   am
     8     5     6    2
     9     5     7   am
    10     7     8    1
    11     8     9    1
    12     9    10    1
    13    10    15    1
    14    15    16    2
    15    15    17   am
    16    17    18    1
    17    18    19    1
    18    19    20    1
    19    20    21    1
    20    21    22    1
    21    22    23    1
    22    23    24    1
    23    22    25    1
    24    10    11    1
    25    11    12    1
    26     4    13    1
    27    13    14    1
    28    14     1    1
    29    12     7    1
    30    25    17    1
    31    24    19    1
@<TRIPOS>MOLECULE
*****
 28 31 0 0 0
SMALL
GASTEIGER

@<TRIPOS>ATOM
      1 N         141.8663  137.9245  158.0043 N.3     1  UNL1       -0.2711
      2 C         142.6045  138.0533  159.3037 C.3     1  UNL1        0.0939
      3 C         141.8533  138.3553  160.5664 C.3     1  UNL1        0.1123
      4 N         140.3638  138.5285  160.5298 N.am    1  UNL1       -0.2612
      5 C         139.6126  138.8305  161.7925 C.2     1  UNL1        0.3072
      6 O         138.1231  139.0037  161.7559 O.2     1  UNL1       -0.2523
      7 N         140.3509  138.9594  163.0918 N.am    1  UNL1       -0.2640
      8 C         139.5997  139.2614  164.3545 C.3     1  UNL1        0.0954
      9 C         140.3380  139.3902  165.6539 C.3     1  UNL1        0.0307
     10 C         141.8275  139.2170  165.6905 C.3     1  UNL1        0.0801
     11 C         142.5787  138.9150  164.4278 C.3     1  UNL1        0.0307
     12 C         141.8405  138.7862  163.1285 C.3     1  UNL1        0.0954
     13 C         139.6256  138.3997  159.2304 C.3     1  UNL1        0.1123
     14 C         140.3768  138.0977  157.9677 C.3     1  UNL1        0.0939
     15 C         142.5658  139.3458  166.9899 C.2     1  UNL1        0.2253
     16 O         143.5911  138.3208  167.3748 O.2     1  UNL1       -0.2749
     17 N         142.0967  142.0119  169.4043 N.am    1  UNL1       -0.2796
     18 C         141.1744  142.4787  168.5213 C.3     1  UNL1        0.0933
     19 C         140.9821  142.5788  168.3403 C.3     1  UNL1        0.0199
     20 C         141.7397  141.3208  168.0346 C.3     1  UNL1        0.0018
     21 C         142.7578  140.8034  169.0070 C.3     1  UNL1        0.0018
     22 C         143.0184  141.5440  170.2851 C.3     1  UNL1        0.0199
     23 C         142.2608  142.8020  170.5909 C.3     1  UNL1        0.0018
     24 C         141.2426  143.3194  169.6185 C.3     1  UNL1        0.0018
     25 C         142.0032  142.0573  169.3125 C.3     1  UNL1        0.0933
     26 C         143.3773  138.7105  156.0424 C.3     1  UNL1        0.0173
     27 C         142.6175  137.6225  156.7416 C.3     1  UNL1        0.0577
     28 C         142.6089  136.2324  156.1780 C.3     1  UNL1        0.0173
@<TRIPOS>BOND
     1    26    27    1
     2    27    28    1
     3    27     1    1
     4     1     2    1
     5     2     3    1
     6     3     4    1
     7     4     5   am
     8     5     6    2
     9     5     7   am
    10     7     8    1
    11     8     9    1
    12     9    10    1
    13    10    15    1
    14    15    16    2
    15    15    17   am
    16    17    18    1
    17    18    19    1
    18    19    20    1
    19    20    21    1
    20    21    22    1
    21    22    23    1
    22    23    24    1
    23    22    25    1
    24    10    11    1
    25    11    12    1
    26     4    13    1
    27    13    14    1
    28    14     1    1
    29    12     7    1
    30    25    17    1
    31    24    19    1
@<TRIPOS>MOLECULE
*****
 28 31 0 0 0
SMALL
GASTEIGER

@<TRIPOS>ATOM
      1 N         144.6182  140.9940  162.0441 N.3     1  UNL1       -0.2711
      2 C         144.0414  139.7592  161.4176 C.3     1  UNL1        0.0939
      3 C         143.6637  139.7611  159.9660 C.3     1  UNL1        0.1123
      4 N         143.8629  140.9978  159.1408 N.am    1  UNL1       -0.2612
      5 C         143.4852  140.9996  157.6891 C.2     1  UNL1        0.3072
      6 O         143.6843  142.2363  156.8639 O.2     1  UNL1       -0.2523
      7 N         142.9084  139.7649  157.0626 N.am    1  UNL1       -0.2640
      8 C         142.5307  139.7667  155.6109 C.3     1  UNL1        0.0954
      9 C         141.9538  138.5318  154.9844 C.3     1  UNL1        0.0307
     10 C         141.7547  137.2952  155.8096 C.3     1  UNL1        0.0801
     11 C         142.1324  137.2933  157.2613 C.3     1  UNL1        0.0307
     12 C         142.7092  138.5281  157.8878 C.3     1  UNL1        0.0954
     13 C         144.4397  142.2326  159.7673 C.3     1  UNL1        0.1123
     14 C         144.8173  142.2307  161.2189 C.3     1  UNL1        0.0939
     15 C         141.1779  136.0604  155.1831 C.2     1  UNL1        0.2253
     16 O         140.0908  136.1781  154.1564 O.2     1  UNL1       -0.2749
     17 N         142.1974  132.6624  155.9390 N.am    1  UNL1       -0.2796
     18 C         143.0671  133.2494  156.8034 C.3     1  UNL1        0.0933
     19 C         143.2492  133.3677  156.9840 C.3     1  UNL1        0.0199
     20 C         142.3269  134.2165  156.1601 C.3     1  UNL1        0.0018
     21 C         141.3663  133.5716  155.2056 C.3     1  UNL1        0.0018
     22 C         141.3279  132.0777  155.0750 C.3     1  UNL1        0.0199
     23 C         142.2501  131.2289  155.8989 C.3     1  UNL1        0.0018
     24 C         143.2108  131.8739  156.8534 C.3     1  UNL1        0.0018
     25 C         142.2851  132.7248  156.0264 C.3     1  UNL1        0.0933
     26 C         145.5308  142.2402  164.1332 C.3     1  UNL1        0.0173
     27 C         144.9959  140.9922  163.4958 C.3     1  UNL1        0.0577
     28 C         144.8387  139.7423  164.3100 C.3     1  UNL1        0.0173
@<TRIPOS>BOND
     1    26    27    1
     2    27    28    1
     3    27     1    1
     4     1     2    1
     5     2     3    1
     6     3     4    1
     7     4     5   am
     8     5     6    2
     9     5     7   am
    10     7     8    1
    11     8     9    1
    12     9    10    1
    13    10    15    1
    14    15    16    2
    15    15    17   am
    16    17    18    1
    17    18    19    1
    18    19    20    1
    19    20    21    1
    20    21    22    1
    21    22    23    1
    22    23    24    1
    23    22    25    1
    24    10    11    1
    25    11    12    1
    26     4    13    1
    27    13    14    1
    28    14     1    1
    29    12     7    1
    30    25    17    1
    31    24    19    1
