@<TRIPOS>MOLECULE
*****
 60 65 0 0 0
SMALL
GASTEIGER

@<TRIPOS>ATOM
      1 C         139.9165  143.4714  157.6484 C.3     1  UNL1        0.2066
      2 O         139.8369  144.4752  158.7602 O.3     1  UNL1       -0.4483
      3 C         140.0391  144.9514  160.1682 C.2     1  UNL1        0.3235
      4 O         139.4957  146.3490  160.1292 O.2     1  UNL1       -0.2496
      5 C         140.4831  144.8056  161.5934 C.3     1  UNL1        0.1563
      6 C         140.1373  146.1382  162.1888 C.3     1  UNL1        0.0196
      7 C         141.0810  144.0667  162.7539 C.2     1  UNL1        0.1629
      8 O         141.0013  145.0705  163.8656 O.2     1  UNL1       -0.2954
      9 C         141.7143  142.8810  163.4195 C.3     1  UNL1        0.0877
     10 C         141.9165  143.3572  164.8275 C.3     1  UNL1        0.0104
     11 C         142.2577  141.4834  163.4585 C.3     1  UNL1        0.1490
     12 C         142.6035  140.1507  162.8632 C.3     1  UNL1        0.1141
     13 C         142.9745  140.2153  164.3152 C.3     1  UNL1        0.0318
     14 O         143.2203  138.8652  163.3288 O.3     1  UNL1       -0.3843
     15 C         142.6831  139.1469  161.7515 C.3     1  UNL1        0.0367
     16 C         142.4809  138.6707  160.3436 C.3     1  UNL1        0.0601
     17 C         143.0243  137.2731  160.3826 C.3     1  UNL1        0.0078
     18 C         142.0369  138.8165  158.9182 C.2     1  UNL1        0.1516
     19 O         142.3826  137.4839  158.3228 O.2     1  UNL1       -0.2960
     20 C         141.4390  139.5554  157.7578 C.3     1  UNL1        0.0794
     21 C         141.5187  138.5516  156.6461 C.3     1  UNL1        0.0096
     22 C         140.8057  140.7411  157.0922 C.3     1  UNL1        0.1254
     23 N         140.6584  140.1481  155.7222 N.am    1  UNL1       -0.2426
     24 C         140.0240  141.1792  154.8365 C.2     1  UNL1        0.4049
     25 O         139.6926  141.0098  153.3835 O.2     1  UNL1       -0.2262
     26 O         139.7792  142.4094  155.6591 O.3     1  UNL1       -0.4365
     27 C         140.2623  142.1387  157.0531 C.3     1  UNL1        0.1908
     28 C         139.6324  143.3572  156.4461 C.3     1  UNL1        0.0493
     29 H         143.4488  138.9379  164.2687 H       1  UNL1        0.2103
     30 C         141.0727  138.7666  155.3104 C.3     1  UNL1        0.1105
     31 C         140.4069  137.4227  155.2856 C.3     1  UNL1        0.0939
     32 N         141.6587  136.8128  154.7279 N.3     1  UNL1       -0.2674
     33 C         142.3245  138.1567  154.7526 C.3     1  UNL1        0.0939
     34 C         142.0730  135.4312  154.3160 C.3     1  UNL1        0.0804
     35 C         141.9726  135.0153  152.8783 C.3     1  UNL1        0.0222
     36 C         142.5877  134.4655  155.3419 C.ar    1  UNL1       -0.0033
     37 C         143.5067  134.9431  156.4269 C.ar    1  UNL1        0.0178
     38 C         144.0214  133.9773  157.4529 C.ar    1  UNL1        0.1003
     39 N         143.6171  132.5341  157.3937 N.ar    1  UNL1       -0.2251
     40 C         142.6982  132.0565  156.3086 C.ar    1  UNL1        0.1620
     41 N         142.2939  130.6132  156.2495 N.ar    1  UNL1       -0.2251
     42 C         141.3749  130.1356  155.1643 C.ar    1  UNL1        0.1006
     43 C         140.8602  131.1014  154.1385 C.ar    1  UNL1        0.0208
     44 C         141.2645  132.5446  154.1977 C.ar    1  UNL1        0.0044
     45 C         142.1835  133.0222  155.2827 C.ar    1  UNL1        0.0332
     46 C         139.7752  145.6033  156.1704 C.3     1  UNL1        0.0040
     47 C         139.3187  144.2103  156.4881 C.3     1  UNL1        0.0474
     48 O         142.7017  141.3376  164.8839 O.3     1  UNL1       -0.3283
     49 C         141.7298  140.8751  165.9286 C.3     1  UNL1        0.2643
     50 O         140.4961  140.1235  165.5250 O.3     1  UNL1       -0.3311
     51 C         139.5242  139.6609  166.5697 C.3     1  UNL1        0.1194
     52 C         138.2904  138.9093  166.1661 C.3     1  UNL1        0.0322
     53 C         139.7860  139.9501  168.0181 C.3     1  UNL1        0.0482
     54 C         141.0198  140.7017  168.4218 C.3     1  UNL1        0.0921
     55 C         141.9917  141.1642  167.3770 C.3     1  UNL1        0.1815
     56 O         143.2254  141.9159  167.7806 O.3     1  UNL1       -0.3783
     57 H         143.2414  142.0169  168.7452 H       1  UNL1        0.2106
     58 N         141.2816  140.9909  169.8702 N.3     1  UNL1       -0.2692
     59 C         140.5161  142.0752  170.5688 C.3     1  UNL1        0.0897
     60 C         142.3089  140.1956  170.6199 C.3     1  UNL1        0.0897
@<TRIPOS>BOND
     1    46    47    1
     2     1    47    1
     3     1     2    1
     4     2     3    1
     5     3     4    2
     6     3     5    1
     7     5     6    1
     8     5     7    1
     9     7     8    2
    10     7     9    1
    11     9    10    1
    12     9    11    1
    13    11    48    1
    14    49    48    1
    15    49    50    1
    16    50    51    1
    17    51    52    1
    18    51    53    1
    19    53    54    1
    20    54    58    1
    21    58    59    1
    22    58    60    1
    23    54    55    1
    24    55    56    1
    25    11    12    1
    26    12    13    1
    27    12    14    1
    28    12    15    1
    29    15    16    1
    30    16    17    1
    31    16    18    1
    32    18    19    2
    33    18    20    1
    34    20    21    1
    35    20    22    1
    36    22    23    1
    37    23    30    1
    38    30    31    1
    39    31    32    1
    40    32    34    1
    41    34    35    1
    42    34    36    1
    43    36    37   ar
    44    37    38   ar
    45    38    39   ar
    46    39    40   ar
    47    40    41   ar
    48    41    42   ar
    49    42    43   ar
    50    43    44   ar
    51    44    45   ar
    52    32    33    1
    53    23    24   am
    54    24    25    2
    55    24    26    1
    56    26    27    1
    57    27    28    1
    58    27     1    1
    59    55    49    1
    60    27    22    1
    61    33    30    1
    62    45    36   ar
    63    45    40   ar
    64    56    57    1
    65    14    29    1
@<TRIPOS>MOLECULE
*****
 60 65 0 0 0
SMALL
GASTEIGER

@<TRIPOS>ATOM
      1 C         141.8193  136.8168  156.6967 C.3     1  UNL1        0.2066
      2 O         141.2275  136.3914  155.3856 O.3     1  UNL1       -0.4483
      3 C         140.2631  136.4942  154.2413 C.2     1  UNL1        0.3235
      4 O         140.6713  135.3533  153.3572 O.2     1  UNL1       -0.2496
      5 C         139.1170  137.1047  153.4906 C.3     1  UNL1        0.1563
      6 C         139.0151  136.2355  152.2724 C.3     1  UNL1        0.0196
      7 C         138.0162  138.1020  153.2820 C.2     1  UNL1        0.1629
      8 O         137.4244  137.6767  151.9710 O.2     1  UNL1       -0.2954
      9 C         137.1788  139.2887  153.6569 C.3     1  UNL1        0.0877
     10 C         136.2143  139.3915  152.5126 C.3     1  UNL1        0.0104
     11 C         136.7705  140.4297  154.5410 C.3     1  UNL1        0.1490
     12 C         136.8724  141.2989  155.7592 C.3     1  UNL1        0.1141
     13 C         135.7625  141.7489  154.8561 C.3     1  UNL1        0.0318
     14 O         136.1633  142.4970  156.3175 O.3     1  UNL1       -0.3843
     15 C         137.4642  141.7243  157.0703 C.3     1  UNL1        0.0367
     16 C         138.4286  141.6215  158.2145 C.3     1  UNL1        0.0601
     17 C         138.0203  142.7625  159.0986 C.3     1  UNL1        0.0078
     18 C         139.5747  141.0110  158.9652 C.2     1  UNL1        0.1516
     19 O         139.6766  141.8802  160.1835 O.2     1  UNL1       -0.2960
     20 C         140.6755  140.0137  159.1739 C.3     1  UNL1        0.0794
     21 C         141.2673  140.4390  160.4849 C.3     1  UNL1        0.0096
     22 C         141.5129  138.8270  158.7990 C.3     1  UNL1        0.1254
     23 N         142.4163  138.8316  159.9965 N.am    1  UNL1       -0.2426
     24 C         143.3828  137.6936  159.8525 C.2     1  UNL1        0.4049
     25 O         144.4652  137.3277  160.8244 O.2     1  UNL1       -0.2262
     26 O         143.0768  136.9856  158.5660 O.3     1  UNL1       -0.4365
     27 C         141.9212  137.6860  157.9149 C.3     1  UNL1        0.1908
     28 C         142.7220  136.4931  157.4839 C.3     1  UNL1        0.0493
     29 H         135.4532  142.7633  155.7128 H       1  UNL1        0.2103
     30 C         142.3625  139.8037  161.1376 C.3     1  UNL1        0.1105
     31 C         141.5490  139.9225  162.3923 C.3     1  UNL1        0.0939
     32 N         142.2865  141.1784  162.7515 N.3     1  UNL1       -0.2674
     33 C         143.0999  141.0595  161.4968 C.3     1  UNL1        0.0939
     34 C         142.2326  142.1504  163.8927 C.3     1  UNL1        0.0804
     35 C         143.3574  142.2070  164.8835 C.3     1  UNL1        0.0222
     36 C         141.0539  143.0659  164.0430 C.ar    1  UNL1       -0.0033
     37 C         140.2210  143.0175  165.2895 C.ar    1  UNL1        0.0178
     38 C         139.0422  143.9330  165.4398 C.ar    1  UNL1        0.1003
     39 N         138.6966  144.8968  164.3438 N.ar    1  UNL1       -0.2251
     40 C         139.5295  144.9452  163.0973 C.ar    1  UNL1        0.1620
     41 N         139.1838  145.9090  162.0011 N.ar    1  UNL1       -0.2251
     42 C         140.0169  145.9574  160.7545 C.ar    1  UNL1        0.1006
     43 C         141.1955  145.0418  160.6043 C.ar    1  UNL1        0.0208
     44 C         141.5412  144.0781  161.7004 C.ar    1  UNL1        0.0044
     45 C         140.7082  144.0297  162.9469 C.ar    1  UNL1        0.0332
     46 C         143.8450  135.4759  155.7755 C.3     1  UNL1        0.0040
     47 C         142.9201  135.8194  156.9053 C.3     1  UNL1        0.0474
     48 O         135.6244  141.0402  153.7902 O.3     1  UNL1       -0.3283
     49 C         134.2474  141.0287  154.3847 C.3     1  UNL1        0.2643
     50 O         134.0073  140.3649  155.7082 O.3     1  UNL1       -0.3311
     51 C         132.6301  140.3534  156.3027 C.3     1  UNL1        0.1194
     52 C         132.3900  139.6896  157.6262 C.3     1  UNL1        0.0322
     53 C         131.4930  141.0058  155.5737 C.3     1  UNL1        0.0482
     54 C         131.7331  141.6696  154.2501 C.3     1  UNL1        0.0921
     55 C         133.1103  141.6811  153.6557 C.3     1  UNL1        0.1815
     56 O         133.3503  142.3450  152.3321 O.3     1  UNL1       -0.3783
     57 H         132.5170  142.7136  151.9995 H       1  UNL1        0.2106
     58 N         130.5960  142.3220  153.5211 N.3     1  UNL1       -0.2692
     59 C         130.0683  141.7129  152.2561 C.3     1  UNL1        0.0897
     60 C         129.9867  143.5834  154.0573 C.3     1  UNL1        0.0897
@<TRIPOS>BOND
     1    46    47    1
     2     1    47    1
     3     1     2    1
     4     2     3    1
     5     3     4    2
     6     3     5    1
     7     5     6    1
     8     5     7    1
     9     7     8    2
    10     7     9    1
    11     9    10    1
    12     9    11    1
    13    11    48    1
    14    49    48    1
    15    49    50    1
    16    50    51    1
    17    51    52    1
    18    51    53    1
    19    53    54    1
    20    54    58    1
    21    58    59    1
    22    58    60    1
    23    54    55    1
    24    55    56    1
    25    11    12    1
    26    12    13    1
    27    12    14    1
    28    12    15    1
    29    15    16    1
    30    16    17    1
    31    16    18    1
    32    18    19    2
    33    18    20    1
    34    20    21    1
    35    20    22    1
    36    22    23    1
    37    23    30    1
    38    30    31    1
    39    31    32    1
    40    32    34    1
    41    34    35    1
    42    34    36    1
    43    36    37   ar
    44    37    38   ar
    45    38    39   ar
    46    39    40   ar
    47    40    41   ar
    48    41    42   ar
    49    42    43   ar
    50    43    44   ar
    51    44    45   ar
    52    32    33    1
    53    23    24   am
    54    24    25    2
    55    24    26    1
    56    26    27    1
    57    27    28    1
    58    27     1    1
    59    55    49    1
    60    27    22    1
    61    33    30    1
    62    45    36   ar
    63    45    40   ar
    64    56    57    1
    65    14    29    1
@<TRIPOS>MOLECULE
*****
 60 65 0 0 0
SMALL
GASTEIGER

@<TRIPOS>ATOM
      1 C         140.4757  142.8023  157.1182 C.3     1  UNL1        0.2066
      2 O         140.2049  144.0179  157.9542 O.3     1  UNL1       -0.4483
      3 C         140.1729  144.7973  159.2355 C.2     1  UNL1        0.3235
      4 O         139.6222  146.1245  158.8052 O.2     1  UNL1       -0.2496
      5 C         140.3861  144.9859  160.7081 C.3     1  UNL1        0.1563
      6 C         139.9302  146.3971  160.9333 C.3     1  UNL1        0.0196
      7 C         140.8021  144.5466  162.0807 C.2     1  UNL1        0.1629
      8 O         140.5314  145.7622  162.9167 O.2     1  UNL1       -0.2954
      9 C         141.3387  143.5662  163.0812 C.3     1  UNL1        0.0877
     10 C         141.3067  144.3456  164.3624 C.3     1  UNL1        0.0104
     11 C         141.8894  142.2390  163.5115 C.3     1  UNL1        0.1490
     12 C         142.3454  140.8278  163.2864 C.3     1  UNL1        0.1141
     13 C         142.4791  141.2237  164.7270 C.3     1  UNL1        0.0318
     14 O         142.8990  139.7059  164.1138 O.3     1  UNL1       -0.3843
     15 C         142.6161  139.6121  162.4504 C.3     1  UNL1        0.0367
     16 C         142.6481  138.8328  161.1692 C.3     1  UNL1        0.0601
     17 C         143.1988  137.5056  161.5995 C.3     1  UNL1        0.0078
     18 C         142.4349  138.6441  159.6965 C.2     1  UNL1        0.1516
     19 O         142.8908  137.2329  159.4712 O.2     1  UNL1       -0.2960
     20 C         142.0189  139.0834  158.3239 C.3     1  UNL1        0.0794
     21 C         142.2896  137.8678  157.4879 C.3     1  UNL1        0.0096
     22 C         141.4824  140.0638  157.3234 C.3     1  UNL1        0.1254
     23 N         141.5642  139.1815  156.1130 N.am    1  UNL1       -0.2426
     24 C         141.0640  139.9634  154.9347 C.2     1  UNL1        0.4049
     25 O         140.9711  139.4670  153.5223 O.2     1  UNL1       -0.2262
     26 O         140.6730  141.3290  155.4168 O.3     1  UNL1       -0.4365
     27 C         140.9316  141.3910  156.8931 C.3     1  UNL1        0.1908
     28 C         140.3886  142.4163  155.9422 C.3     1  UNL1        0.0493
     29 H         142.9735  139.9918  165.0377 H       1  UNL1        0.2103
     30 C         142.0593  137.7659  156.0859 C.3     1  UNL1        0.1105
     31 C         143.3758  137.1080  155.7959 C.3     1  UNL1        0.0939
     32 N         142.7595  135.7638  156.0474 N.3     1  UNL1       -0.2674
     33 C         141.4430  136.4216  156.3374 C.3     1  UNL1        0.0939
     34 C         143.2547  134.3481  156.0202 C.3     1  UNL1        0.0804
     35 C         144.0066  133.7938  157.1938 C.3     1  UNL1        0.0222
     36 C         142.9979  133.4868  154.8193 C.ar    1  UNL1       -0.0033
     37 C         142.1593  134.0062  153.6893 C.ar    1  UNL1        0.0178
     38 C         141.9026  133.1448  152.4883 C.ar    1  UNL1        0.1003
     39 N         142.4843  131.7641  152.4175 N.ar    1  UNL1       -0.2251
     40 C         143.3229  131.2447  153.5475 C.ar    1  UNL1        0.1620
     41 N         143.9047  129.8639  153.4767 N.ar    1  UNL1       -0.2251
     42 C         144.7433  129.3445  154.6068 C.ar    1  UNL1        0.1006
     43 C         145.0000  130.2059  155.8076 C.ar    1  UNL1        0.0208
     44 C         144.4183  131.5866  155.8784 C.ar    1  UNL1        0.0044
     45 C         143.5797  132.1060  154.7484 C.ar    1  UNL1        0.0332
     46 C         140.5226  144.5634  155.2088 C.3     1  UNL1        0.0040
     47 C         140.0596  143.2416  155.7457 C.3     1  UNL1        0.0474
     48 O         142.1026  142.4277  164.9843 O.3     1  UNL1       -0.3283
     49 C         141.3454  141.5833  165.9659 C.3     1  UNL1        0.2643
     50 O         140.1262  140.8299  165.5234 O.3     1  UNL1       -0.3311
     51 C         139.3689  139.9855  166.5050 C.3     1  UNL1        0.1194
     52 C         138.1497  139.2320  166.0626 C.3     1  UNL1        0.0322
     53 C         139.8309  139.8946  167.9292 C.3     1  UNL1        0.0482
     54 C         141.0501  140.6480  168.3718 C.3     1  UNL1        0.0921
     55 C         141.8073  141.4924  167.3901 C.3     1  UNL1        0.1815
     56 O         143.0266  142.2459  167.8326 O.3     1  UNL1       -0.3783
     57 H         143.1855  142.0790  168.7749 H       1  UNL1        0.2106
     58 N         141.5121  140.5571  169.7960 N.3     1  UNL1       -0.2692
     59 C         141.0293  141.5551  170.8062 C.3     1  UNL1        0.0897
     60 C         142.4569  139.4680  170.2098 C.3     1  UNL1        0.0897
@<TRIPOS>BOND
     1    46    47    1
     2     1    47    1
     3     1     2    1
     4     2     3    1
     5     3     4    2
     6     3     5    1
     7     5     6    1
     8     5     7    1
     9     7     8    2
    10     7     9    1
    11     9    10    1
    12     9    11    1
    13    11    48    1
    14    49    48    1
    15    49    50    1
    16    50    51    1
    17    51    52    1
    18    51    53    1
    19    53    54    1
    20    54    58    1
    21    58    59    1
    22    58    60    1
    23    54    55    1
    24    55    56    1
    25    11    12    1
    26    12    13    1
    27    12    14    1
    28    12    15    1
    29    15    16    1
    30    16    17    1
    31    16    18    1
    32    18    19    2
    33    18    20    1
    34    20    21    1
    35    20    22    1
    36    22    23    1
    37    23    30    1
    38    30    31    1
    39    31    32    1
    40    32    34    1
    41    34    35    1
    42    34    36    1
    43    36    37   ar
    44    37    38   ar
    45    38    39   ar
    46    39    40   ar
    47    40    41   ar
    48    41    42   ar
    49    42    43   ar
    50    43    44   ar
    51    44    45   ar
    52    32    33    1
    53    23    24   am
    54    24    25    2
    55    24    26    1
    56    26    27    1
    57    27    28    1
    58    27     1    1
    59    55    49    1
    60    27    22    1
    61    33    30    1
    62    45    36   ar
    63    45    40   ar
    64    56    57    1
    65    14    29    1
@<TRIPOS>MOLECULE
*****
 60 65 0 0 0
SMALL
GASTEIGER

@<TRIPOS>ATOM
      1 C         140.8323  144.4831  158.1218 C.3     1  UNL1        0.2066
      2 O         141.2753  144.5360  156.6897 O.3     1  UNL1       -0.4483
      3 C         141.8398  143.9549  155.4273 C.2     1  UNL1        0.3235
      4 O         141.8182  145.1211  154.4842 O.2     1  UNL1       -0.2496
      5 C         142.4137  142.8548  154.5847 C.3     1  UNL1        0.1563
      6 C         142.6477  143.5313  153.2665 C.3     1  UNL1        0.0196
      7 C         142.8836  141.4535  154.3285 C.2     1  UNL1        0.1629
      8 O         143.3267  141.5065  152.8965 O.2     1  UNL1       -0.2954
      9 C         143.1563  140.0286  154.7098 C.3     1  UNL1        0.0877
     10 C         143.7208  139.4474  153.4474 C.3     1  UNL1        0.0104
     11 C         143.1779  138.8623  155.6529 C.3     1  UNL1        0.1490
     12 C         142.9440  138.1856  156.9710 C.3     1  UNL1        0.1141
     13 C         143.5278  137.2387  155.9648 C.3     1  UNL1        0.0318
     14 O         143.1366  136.8171  157.5539 O.3     1  UNL1       -0.3843
     15 C         142.5009  138.1327  158.4031 C.3     1  UNL1        0.0367
     16 C         141.9365  138.7138  159.6655 C.3     1  UNL1        0.0601
     17 C         141.9580  137.5475  160.6086 C.3     1  UNL1        0.0078
     18 C         141.3625  139.8139  160.5082 C.2     1  UNL1        0.1516
     19 O         141.1285  139.1374  161.8263 O.2     1  UNL1       -0.2960
     20 C         140.8926  141.2152  160.7643 C.3     1  UNL1        0.0794
     21 C         140.4495  141.1622  162.1964 C.3     1  UNL1        0.0096
     22 C         140.6199  142.6401  160.3831 C.3     1  UNL1        0.1254
     23 N         140.0712  143.0998  161.7013 N.am    1  UNL1       -0.2426
     24 C         139.7106  144.5502  161.5729 C.2     1  UNL1        0.4049
     25 O         139.1268  145.4124  162.6526 O.2     1  UNL1       -0.2262
     26 O         140.0364  144.9868  160.1754 O.3     1  UNL1       -0.4365
     27 C         140.5983  143.8064  159.4400 C.3     1  UNL1        0.1908
     28 C         140.3491  145.2177  158.9972 C.3     1  UNL1        0.0493
     29 H         143.5144  136.2293  156.8811 H       1  UNL1        0.2103
     30 C         139.9113  142.2571  162.9318 C.3     1  UNL1        0.1105
     31 C         140.6822  142.0849  164.2070 C.3     1  UNL1        0.0939
     32 N         139.6851  141.0653  164.6721 N.3     1  UNL1       -0.2674
     33 C         138.9142  141.2375  163.3969 C.3     1  UNL1        0.0939
     34 C         139.5253  140.2226  165.9027 C.3     1  UNL1        0.0804
     35 C         138.1614  139.7627  166.3248 C.3     1  UNL1        0.0222
     36 C         140.7294  139.8398  166.7110 C.ar    1  UNL1       -0.0033
     37 C         141.8552  139.0851  166.0684 C.ar    1  UNL1        0.0178
     38 C         143.0593  138.7023  166.8769 C.ar    1  UNL1        0.1003
     39 N         143.1376  139.0741  168.3278 N.ar    1  UNL1       -0.2251
     40 C         142.0118  139.8288  168.9705 C.ar    1  UNL1        0.1620
     41 N         142.0902  140.2006  170.4216 N.ar    1  UNL1       -0.2251
     42 C         140.9643  140.9553  171.0643 C.ar    1  UNL1        0.1006
     43 C         139.7602  141.3381  170.2558 C.ar    1  UNL1        0.0208
     44 C         139.6819  140.9663  168.8048 C.ar    1  UNL1        0.0044
     45 C         140.8077  140.2116  168.1621 C.ar    1  UNL1        0.0332
     46 C         139.6387  146.6408  157.3038 C.3     1  UNL1        0.0040
     47 C         140.3624  145.8843  158.3779 C.3     1  UNL1        0.0474
     48 O         143.7519  137.7621  154.8102 O.3     1  UNL1       -0.3283
     49 C         142.8799  136.6260  154.3646 C.3     1  UNL1        0.2643
     50 O         141.6656  136.8964  153.5266 O.3     1  UNL1       -0.3311
     51 C         140.7935  135.7602  153.0809 C.3     1  UNL1        0.1194
     52 C         139.5792  136.0306  152.2429 C.3     1  UNL1        0.0322
     53 C         141.1358  134.3534  153.4734 C.3     1  UNL1        0.0482
     54 C         142.3501  134.0829  154.3114 C.3     1  UNL1        0.0921
     55 C         143.2222  135.2192  154.7570 C.3     1  UNL1        0.1815
     56 O         144.4365  134.9487  155.5951 O.3     1  UNL1       -0.3783
     57 H         144.5118  133.9953  155.7570 H       1  UNL1        0.2106
     58 N         142.6924  132.6762  154.7038 N.3     1  UNL1       -0.2692
     59 C         143.1809  131.7066  153.6689 C.3     1  UNL1        0.0897
     60 C         142.5462  132.2392  156.1313 C.3     1  UNL1        0.0897
@<TRIPOS>BOND
     1    46    47    1
     2     1    47    1
     3     1     2    1
     4     2     3    1
     5     3     4    2
     6     3     5    1
     7     5     6    1
     8     5     7    1
     9     7     8    2
    10     7     9    1
    11     9    10    1
    12     9    11    1
    13    11    48    1
    14    49    48    1
    15    49    50    1
    16    50    51    1
    17    51    52    1
    18    51    53    1
    19    53    54    1
    20    54    58    1
    21    58    59    1
    22    58    60    1
    23    54    55    1
    24    55    56    1
    25    11    12    1
    26    12    13    1
    27    12    14    1
    28    12    15    1
    29    15    16    1
    30    16    17    1
    31    16    18    1
    32    18    19    2
    33    18    20    1
    34    20    21    1
    35    20    22    1
    36    22    23    1
    37    23    30    1
    38    30    31    1
    39    31    32    1
    40    32    34    1
    41    34    35    1
    42    34    36    1
    43    36    37   ar
    44    37    38   ar
    45    38    39   ar
    46    39    40   ar
    47    40    41   ar
    48    41    42   ar
    49    42    43   ar
    50    43    44   ar
    51    44    45   ar
    52    32    33    1
    53    23    24   am
    54    24    25    2
    55    24    26    1
    56    26    27    1
    57    27    28    1
    58    27     1    1
    59    55    49    1
    60    27    22    1
    61    33    30    1
    62    45    36   ar
    63    45    40   ar
    64    56    57    1
    65    14    29    1
@<TRIPOS>MOLECULE
*****
 60 65 0 0 0
SMALL
GASTEIGER

@<TRIPOS>ATOM
      1 C         140.8471  145.2078  156.6395 C.3     1  UNL1        0.2066
      2 O         141.2432  144.9945  155.2085 O.3     1  UNL1       -0.4483
      3 C         141.7740  144.1908  154.0585 C.2     1  UNL1        0.3235
      4 O         141.7076  145.1598  152.9154 O.2     1  UNL1       -0.2496
      5 C         142.3342  142.9560  153.4173 C.3     1  UNL1        0.1563
      6 C         142.5172  143.3753  151.9888 C.3     1  UNL1        0.0196
      7 C         142.8130  141.5345  153.4117 C.2     1  UNL1        0.1629
      8 O         143.2091  141.3212  151.9808 O.2     1  UNL1       -0.2954
      9 C         143.1155  140.2078  154.0431 C.3     1  UNL1        0.0877
     10 C         143.6463  139.4042  152.8931 C.3     1  UNL1        0.0104
     11 C         143.1819  139.2389  155.1862 C.3     1  UNL1        0.1490
     12 C         142.9989  138.8195  156.6148 C.3     1  UNL1        0.1141
     13 C         143.5618  137.7046  155.7840 C.3     1  UNL1        0.0318
     14 O         143.2272  137.5854  157.4363 O.3     1  UNL1       -0.3843
     15 C         142.6028  139.0328  158.0457 C.3     1  UNL1        0.0367
     16 C         142.0721  139.8363  159.1957 C.3     1  UNL1        0.0601
     17 C         142.1385  138.8674  160.3388 C.3     1  UNL1        0.0078
     18 C         141.5119  141.0712  159.8369 C.2     1  UNL1        0.1516
     19 O         141.3288  140.6519  161.2654 O.2     1  UNL1       -0.2960
     20 C         141.0330  142.4928  159.8425 C.3     1  UNL1        0.0794
     21 C         140.6370  142.7060  161.2734 C.3     1  UNL1        0.0096
     22 C         140.7305  143.8194  159.2111 C.3     1  UNL1        0.1254
     23 N         140.2189  144.5143  160.4380 N.am    1  UNL1       -0.2426
     24 C         139.8363  145.9127  160.0533 C.2     1  UNL1        0.4049
     25 O         139.2768  146.9582  160.9719 O.2     1  UNL1       -0.2262
     26 O         140.1115  146.0821  158.5885 O.3     1  UNL1       -0.4365
     27 C         140.6642  144.7883  158.0680 C.3     1  UNL1        0.1908
     28 C         140.3832  146.0903  157.3780 C.3     1  UNL1        0.0493
     29 H         143.5905  136.8845  156.8728 H       1  UNL1        0.2103
     30 C         140.1091  143.9158  161.8091 C.3     1  UNL1        0.1105
     31 C         139.0240  143.2257  162.5814 C.3     1  UNL1        0.0939
     32 N         139.9538  143.0694  163.7480 N.3     1  UNL1       -0.2674
     33 C         141.0389  143.7595  162.9758 C.3     1  UNL1        0.0939
     34 C         139.8439  142.4709  165.1191 C.3     1  UNL1        0.0804
     35 C         139.7575  143.3627  166.3221 C.3     1  UNL1        0.0222
     36 C         139.8205  140.9805  165.2871 C.ar    1  UNL1       -0.0033
     37 C         138.5159  140.2694  165.4930 C.ar    1  UNL1        0.0178
     38 C         138.4926  138.7790  165.6609 C.ar    1  UNL1        0.1003
     39 N         139.7736  137.9998  165.6231 N.ar    1  UNL1       -0.2251
     40 C         141.0782  138.7109  165.4172 C.ar    1  UNL1        0.1620
     41 N         142.3594  137.9316  165.3793 N.ar    1  UNL1       -0.2251
     42 C         143.6640  138.6428  165.1734 C.ar    1  UNL1        0.1006
     43 C         143.6873  140.1332  165.0054 C.ar    1  UNL1        0.0208
     44 C         142.4062  140.9123  165.0433 C.ar    1  UNL1        0.0044
     45 C         141.1016  140.2012  165.2492 C.ar    1  UNL1        0.0332
     46 C         139.2618  147.0515  155.7246 C.3     1  UNL1        0.0040
     47 C         140.3684  146.6292  156.6450 C.3     1  UNL1        0.0474
     48 O         143.7421  138.0040  154.5450 O.3     1  UNL1       -0.3283
     49 C         142.8477  136.8333  154.2637 C.3     1  UNL1        0.2643
     50 O         141.5830  137.0267  153.4807 O.3     1  UNL1       -0.3311
     51 C         140.6884  135.8559  153.1994 C.3     1  UNL1        0.1194
     52 C         139.4237  136.0493  152.4164 C.3     1  UNL1        0.0322
     53 C         141.0586  134.4916  153.7012 C.3     1  UNL1        0.0482
     54 C         142.3234  134.2981  154.4842 C.3     1  UNL1        0.0921
     55 C         143.2179  135.4690  154.7654 C.3     1  UNL1        0.1815
     56 O         144.4826  135.2755  155.5485 O.3     1  UNL1       -0.3783
     57 H         144.5706  134.3414  155.7948 H       1  UNL1        0.2106
     58 N         142.6935  132.9338  154.9859 N.3     1  UNL1       -0.2692
     59 C         143.1305  131.8727  154.0201 C.3     1  UNL1        0.0897
     60 C         142.6267  132.6309  156.4534 C.3     1  UNL1        0.0897
@<TRIPOS>BOND
     1    46    47    1
     2     1    47    1
     3     1     2    1
     4     2     3    1
     5     3     4    2
     6     3     5    1
     7     5     6    1
     8     5     7    1
     9     7     8    2
    10     7     9    1
    11     9    10    1
    12     9    11    1
    13    11    48    1
    14    49    48    1
    15    49    50    1
    16    50    51    1
    17    51    52    1
    18    51    53    1
    19    53    54    1
    20    54    58    1
    21    58    59    1
    22    58    60    1
    23    54    55    1
    24    55    56    1
    25    11    12    1
    26    12    13    1
    27    12    14    1
    28    12    15    1
    29    15    16    1
    30    16    17    1
    31    16    18    1
    32    18    19    2
    33    18    20    1
    34    20    21    1
    35    20    22    1
    36    22    23    1
    37    23    30    1
    38    30    31    1
    39    31    32    1
    40    32    34    1
    41    34    35    1
    42    34    36    1
    43    36    37   ar
    44    37    38   ar
    45    38    39   ar
    46    39    40   ar
    47    40    41   ar
    48    41    42   ar
    49    42    43   ar
    50    43    44   ar
    51    44    45   ar
    52    32    33    1
    53    23    24   am
    54    24    25    2
    55    24    26    1
    56    26    27    1
    57    27    28    1
    58    27     1    1
    59    55    49    1
    60    27    22    1
    61    33    30    1
    62    45    36   ar
    63    45    40   ar
    64    56    57    1
    65    14    29    1
@<TRIPOS>MOLECULE
*****
 60 65 0 0 0
SMALL
GASTEIGER

@<TRIPOS>ATOM
      1 C         138.9293  140.4427  153.5519 C.3     1  UNL1        0.2066
      2 O         138.4914  141.8720  153.6757 O.3     1  UNL1       -0.4483
      3 C         138.4649  143.2264  154.3199 C.2     1  UNL1        0.3235
      4 O         137.5288  143.9976  153.4373 O.2     1  UNL1       -0.2496
      5 C         138.8550  144.2375  155.3569 C.3     1  UNL1        0.1563
      6 C         138.0925  145.4587  154.9358 C.3     1  UNL1        0.0196
      7 C         139.5844  144.7053  156.5813 C.2     1  UNL1        0.1629
      8 O         139.1465  146.1346  156.7050 O.2     1  UNL1       -0.2954
      9 C         140.5087  144.5369  157.7506 C.3     1  UNL1        0.0877
     10 C         140.4821  145.8913  158.3948 C.3     1  UNL1        0.0104
     11 C         141.4448  143.7658  158.6333 C.3     1  UNL1        0.1490
     12 C         142.2073  142.5446  159.0544 C.3     1  UNL1        0.1141
     13 C         142.4631  143.6969  159.9801 C.3     1  UNL1        0.0318
     14 O         143.1568  142.1654  160.1520 O.3     1  UNL1       -0.3843
     15 C         142.6452  141.1153  158.9306 C.3     1  UNL1        0.0367
     16 C         142.6718  139.7610  158.2865 C.3     1  UNL1        0.0601
     17 C         143.6079  138.9898  159.1692 C.3     1  UNL1        0.0078
     18 C         142.2817  138.7498  157.2495 C.2     1  UNL1        0.1516
     19 O         143.0442  137.5286  157.6706 O.2     1  UNL1       -0.2960
     20 C         141.5523  138.2820  156.0251 C.3     1  UNL1        0.0794
     21 C         141.9902  136.8527  155.9013 C.3     1  UNL1        0.0096
     22 C         140.6280  138.4504  154.8558 C.3     1  UNL1        0.1254
     23 N         140.7399  137.0583  154.3085 N.am    1  UNL1       -0.2426
     24 C         139.8730  136.9690  153.0876 C.2     1  UNL1        0.4049
     25 O         139.6866  135.7558  152.2254 O.2     1  UNL1       -0.2262
     26 O         139.2253  138.3060  152.8804 O.3     1  UNL1       -0.4365
     27 C         139.6919  139.2216  153.9731 C.3     1  UNL1        0.1908
     28 C         138.7578  139.4538  152.8226 C.3     1  UNL1        0.0493
     29 H         143.3018  142.9290  160.7322 H       1  UNL1        0.2103
     30 C         141.5726  135.9500  154.8815 C.3     1  UNL1        0.1105
     31 C         143.0345  135.6143  154.8842 C.3     1  UNL1        0.0939
     32 N         142.7502  134.3827  155.6919 N.3     1  UNL1       -0.2674
     33 C         141.2883  134.7185  155.6892 C.3     1  UNL1        0.0939
     34 C         143.5830  133.2744  156.2649 C.3     1  UNL1        0.0804
     35 C         144.2992  133.4712  157.5681 C.3     1  UNL1        0.0222
     36 C         143.6995  131.9694  155.5346 C.ar    1  UNL1       -0.0033
     37 C         143.4160  131.9055  154.0631 C.ar    1  UNL1        0.0178
     38 C         143.5325  130.6004  153.3328 C.ar    1  UNL1        0.1003
     39 N         143.9326  129.3594  154.0741 N.ar    1  UNL1       -0.2251
     40 C         144.2162  129.4233  155.5457 C.ar    1  UNL1        0.1620
     41 N         144.6163  128.1821  156.2869 N.ar    1  UNL1       -0.2251
     42 C         144.8999  128.2460  157.7586 C.ar    1  UNL1        0.1006
     43 C         144.7833  129.5511  158.4887 C.ar    1  UNL1        0.0208
     44 C         144.3832  130.7922  157.7475 C.ar    1  UNL1        0.0044
     45 C         144.0997  130.7283  156.2759 C.ar    1  UNL1        0.0332
     46 C         136.7133  140.1478  152.2283 C.3     1  UNL1        0.0040
     47 C         138.1999  139.9750  152.3276 C.3     1  UNL1        0.0474
     48 O         141.8349  144.7770  159.6703 O.3     1  UNL1       -0.3283
     49 C         141.7335  144.4346  161.1271 C.3     1  UNL1        0.2643
     50 O         142.9635  144.4371  161.9855 O.3     1  UNL1       -0.3311
     51 C         142.8622  144.0947  163.4424 C.3     1  UNL1        0.1194
     52 C         144.0922  144.0973  164.3009 C.3     1  UNL1        0.0322
     53 C         141.5307  143.7498  164.0409 C.3     1  UNL1        0.0482
     54 C         140.3006  143.7472  163.1825 C.3     1  UNL1        0.0921
     55 C         140.4020  144.0896  161.7256 C.3     1  UNL1        0.1815
     56 O         139.1719  144.0870  160.8671 O.3     1  UNL1       -0.3783
     57 H         138.4024  143.8445  161.4056 H       1  UNL1        0.2106
     58 N         138.9691  143.4022  163.7810 N.3     1  UNL1       -0.2692
     59 C         138.4120  142.0185  163.6237 C.3     1  UNL1        0.0897
     60 C         138.1947  144.4411  164.5367 C.3     1  UNL1        0.0897
@<TRIPOS>BOND
     1    46    47    1
     2     1    47    1
     3     1     2    1
     4     2     3    1
     5     3     4    2
     6     3     5    1
     7     5     6    1
     8     5     7    1
     9     7     8    2
    10     7     9    1
    11     9    10    1
    12     9    11    1
    13    11    48    1
    14    49    48    1
    15    49    50    1
    16    50    51    1
    17    51    52    1
    18    51    53    1
    19    53    54    1
    20    54    58    1
    21    58    59    1
    22    58    60    1
    23    54    55    1
    24    55    56    1
    25    11    12    1
    26    12    13    1
    27    12    14    1
    28    12    15    1
    29    15    16    1
    30    16    17    1
    31    16    18    1
    32    18    19    2
    33    18    20    1
    34    20    21    1
    35    20    22    1
    36    22    23    1
    37    23    30    1
    38    30    31    1
    39    31    32    1
    40    32    34    1
    41    34    35    1
    42    34    36    1
    43    36    37   ar
    44    37    38   ar
    45    38    39   ar
    46    39    40   ar
    47    40    41   ar
    48    41    42   ar
    49    42    43   ar
    50    43    44   ar
    51    44    45   ar
    52    32    33    1
    53    23    24   am
    54    24    25    2
    55    24    26    1
    56    26    27    1
    57    27    28    1
    58    27     1    1
    59    55    49    1
    60    27    22    1
    61    33    30    1
    62    45    36   ar
    63    45    40   ar
    64    56    57    1
    65    14    29    1
@<TRIPOS>MOLECULE
*****
 60 65 0 0 0
SMALL
GASTEIGER

@<TRIPOS>ATOM
      1 C         141.1021  141.4965  155.3362 C.3     1  UNL1        0.2066
      2 O         140.7825  142.8705  155.8461 O.3     1  UNL1       -0.4483
      3 C         140.6661  143.9256  156.9059 C.2     1  UNL1        0.3235
      4 O         140.1576  145.1119  156.1416 O.2     1  UNL1       -0.2496
      5 C         140.7761  144.4527  158.3058 C.3     1  UNL1        0.1563
      6 C         140.3165  145.8736  158.1646 C.3     1  UNL1        0.0196
      7 C         141.0905  144.3476  159.7687 C.2     1  UNL1        0.1629
      8 O         140.7709  145.7216  160.2785 O.2     1  UNL1       -0.2954
      9 C         141.5473  143.6309  161.0048 C.3     1  UNL1        0.0877
     10 C         141.4309  144.6860  162.0646 C.3     1  UNL1        0.0104
     11 C         142.0558  142.4446  161.7691 C.3     1  UNL1        0.1490
     12 C         142.5155  141.0237  161.9105 C.3     1  UNL1        0.1141
     13 C         142.5501  141.7444  163.2255 C.3     1  UNL1        0.0318
     14 O         143.0004  140.1294  163.0126 O.3     1  UNL1       -0.3843
     15 C         142.8351  139.6497  161.4006 C.3     1  UNL1        0.0367
     16 C         142.9514  138.5947  160.3409 C.3     1  UNL1        0.0601
     17 C         143.4600  137.4084  161.1052 C.3     1  UNL1        0.0078
     18 C         142.8415  138.0675  158.9409 C.2     1  UNL1        0.1516
     19 O         143.3011  136.6467  159.0821 O.2     1  UNL1       -0.2960
     20 C         142.5270  138.1726  157.4780 C.3     1  UNL1        0.0794
     21 C         142.8466  136.7986  156.9682 C.3     1  UNL1        0.0096
     22 C         142.0702  138.8894  156.2419 C.3     1  UNL1        0.1254
     23 N         142.2305  137.7511  155.2783 N.am    1  UNL1       -0.2426
     24 C         141.8210  138.2337  153.9184 C.2     1  UNL1        0.4049
     25 O         141.8243  137.4223  152.6568 O.2     1  UNL1       -0.2262
     26 O         141.4077  139.6704  154.0416 O.3     1  UNL1       -0.4365
     27 C         141.5617  140.0756  155.4776 C.3     1  UNL1        0.1908
     28 C         141.0954  140.8474  154.2789 C.3     1  UNL1        0.0493
     29 H         143.0116  140.6226  163.8479 H       1  UNL1        0.2103
     30 C         142.7152  136.3721  155.6154 C.3     1  UNL1        0.1105
     31 C         144.0489  135.6857  155.6096 C.3     1  UNL1        0.0939
     32 N         143.4006  134.4220  156.0922 N.3     1  UNL1       -0.2674
     33 C         142.0669  135.1084  156.0980 C.3     1  UNL1        0.0939
     34 C         143.8854  133.0431  156.4293 C.3     1  UNL1        0.0804
     35 C         144.7785  132.8311  157.6156 C.3     1  UNL1        0.0222
     36 C         143.4769  131.8761  155.5800 C.ar    1  UNL1       -0.0033
     37 C         143.2405  132.0641  154.1108 C.ar    1  UNL1        0.0178
     38 C         142.8321  130.8970  153.2615 C.ar    1  UNL1        0.1003
     39 N         142.6600  129.5421  153.8815 N.ar    1  UNL1       -0.2251
     40 C         142.8963  129.3541  155.3508 C.ar    1  UNL1        0.1620
     41 N         142.7242  127.9991  155.9708 N.ar    1  UNL1       -0.2251
     42 C         142.9606  127.8111  157.4402 C.ar    1  UNL1        0.1006
     43 C         143.3691  128.9782  158.2893 C.ar    1  UNL1        0.0208
     44 C         143.5411  130.3331  157.6693 C.ar    1  UNL1        0.0044
     45 C         143.3048  130.5211  156.2001 C.ar    1  UNL1        0.0332
     46 C         141.0453  142.8852  153.1413 C.3     1  UNL1        0.0040
     47 C         140.7876  141.6016  153.8734 C.3     1  UNL1        0.0474
     48 O         142.1658  142.9718  163.1691 O.3     1  UNL1       -0.3283
     49 C         141.4420  142.2840  164.2885 C.3     1  UNL1        0.2643
     50 O         140.1590  141.5559  164.0166 O.3     1  UNL1       -0.3311
     51 C         139.4351  140.8682  165.1360 C.3     1  UNL1        0.1194
     52 C         138.1522  140.1401  164.8641 C.3     1  UNL1        0.0322
     53 C         139.9942  140.9085  166.5273 C.3     1  UNL1        0.0482
     54 C         141.2772  141.6366  166.7993 C.3     1  UNL1        0.0921
     55 C         142.0010  142.3244  165.6798 C.3     1  UNL1        0.1815
     56 O         143.2840  143.0525  165.9518 O.3     1  UNL1       -0.3783
     57 H         143.5026  142.9815  166.8942 H       1  UNL1        0.2106
     58 N         141.8363  141.6769  168.1906 N.3     1  UNL1       -0.2692
     59 C         141.4897  142.8139  169.1055 C.3     1  UNL1        0.0897
     60 C         142.7419  140.5802  168.6670 C.3     1  UNL1        0.0897
@<TRIPOS>BOND
     1    46    47    1
     2     1    47    1
     3     1     2    1
     4     2     3    1
     5     3     4    2
     6     3     5    1
     7     5     6    1
     8     5     7    1
     9     7     8    2
    10     7     9    1
    11     9    10    1
    12     9    11    1
    13    11    48    1
    14    49    48    1
    15    49    50    1
    16    50    51    1
    17    51    52    1
    18    51    53    1
    19    53    54    1
    20    54    58    1
    21    58    59    1
    22    58    60    1
    23    54    55    1
    24    55    56    1
    25    11    12    1
    26    12    13    1
    27    12    14    1
    28    12    15    1
    29    15    16    1
    30    16    17    1
    31    16    18    1
    32    18    19    2
    33    18    20    1
    34    20    21    1
    35    20    22    1
    36    22    23    1
    37    23    30    1
    38    30    31    1
    39    31    32    1
    40    32    34    1
    41    34    35    1
    42    34    36    1
    43    36    37   ar
    44    37    38   ar
    45    38    39   ar
    46    39    40   ar
    47    40    41   ar
    48    41    42   ar
    49    42    43   ar
    50    43    44   ar
    51    44    45   ar
    52    32    33    1
    53    23    24   am
    54    24    25    2
    55    24    26    1
    56    26    27    1
    57    27    28    1
    58    27     1    1
    59    55    49    1
    60    27    22    1
    61    33    30    1
    62    45    36   ar
    63    45    40   ar
    64    56    57    1
    65    14    29    1
@<TRIPOS>MOLECULE
*****
 60 65 0 0 0
SMALL
GASTEIGER

@<TRIPOS>ATOM
      1 C         139.9235  142.4582  156.1805 C.3     1  UNL1        0.2066
      2 O         139.8569  143.6549  157.0825 O.3     1  UNL1       -0.4483
      3 C         140.1018  144.3979  158.3624 C.2     1  UNL1        0.3235
      4 O         139.5108  145.7479  158.0829 O.2     1  UNL1       -0.2496
      5 C         140.6098  144.5400  159.7665 C.3     1  UNL1        0.1563
      6 C         140.2448  145.9533  160.1120 C.3     1  UNL1        0.0196
      7 C         141.2802  144.0533  161.0169 C.2     1  UNL1        0.1629
      8 O         141.2136  145.2499  161.9189 O.2     1  UNL1       -0.2954
      9 C         141.9802  143.0339  161.8659 C.3     1  UNL1        0.0877
     10 C         142.2252  143.7769  163.1458 C.3     1  UNL1        0.0104
     11 C         142.5713  141.6838  162.1454 C.3     1  UNL1        0.1490
     12 C         142.9363  140.2705  161.7999 C.3     1  UNL1        0.1141
     13 C         143.3654  140.6224  163.1935 C.3     1  UNL1        0.0318
     14 O         143.6148  139.1143  162.4726 O.3     1  UNL1       -0.3843
     15 C         143.0028  139.0738  160.8979 C.3     1  UNL1        0.0367
     16 C         142.7579  138.3308  159.6181 C.3     1  UNL1        0.0601
     17 C         143.3490  136.9808  159.8976 C.3     1  UNL1        0.0078
     18 C         142.2499  138.1887  158.2139 C.2     1  UNL1        0.1516
     19 O         142.6149  136.7754  157.8684 O.2     1  UNL1       -0.2960
     20 C         141.5795  138.6754  156.9635 C.3     1  UNL1        0.0794
     21 C         141.6461  137.4788  156.0615 C.3     1  UNL1        0.0096
     22 C         140.8795  139.6949  156.1145 C.3     1  UNL1        0.1254
     23 N         140.6949  138.8459  154.8917 N.am    1  UNL1       -0.2426
     24 C         139.9897  139.6713  153.8565 C.2     1  UNL1        0.4049
     25 O         139.6036  139.2173  152.4800 O.2     1  UNL1       -0.2262
     26 O         139.7386  141.0303  154.4395 O.3     1  UNL1       -0.4365
     27 C         140.2884  141.0449  155.8350 C.3     1  UNL1        0.1908
     28 C         139.5932  142.1079  155.0370 C.3     1  UNL1        0.0493
     29 H         143.8798  139.3721  163.3694 H       1  UNL1        0.2103
     30 C         141.1377  137.4217  154.7321 C.3     1  UNL1        0.1105
     31 C         140.5255  136.0823  155.0173 C.3     1  UNL1        0.0939
     32 N         141.7639  135.4075  154.5064 N.3     1  UNL1       -0.2674
     33 C         142.3761  136.7469  154.2212 C.3     1  UNL1        0.0939
     34 C         142.2066  133.9832  154.3468 C.3     1  UNL1        0.0804
     35 C         141.9794  133.2681  153.0480 C.3     1  UNL1        0.0222
     36 C         142.8765  133.2740  155.4862 C.ar    1  UNL1       -0.0033
     37 C         143.7913  134.0282  156.4051 C.ar    1  UNL1        0.0178
     38 C         144.4612  133.3189  157.5446 C.ar    1  UNL1        0.1003
     39 N         144.2163  131.8556  157.7650 N.ar    1  UNL1       -0.2251
     40 C         143.3015  131.1014  156.8462 C.ar    1  UNL1        0.1620
     41 N         143.0566  129.6381  157.0667 N.ar    1  UNL1       -0.2251
     42 C         142.1418  128.8839  156.1477 C.ar    1  UNL1        0.1006
     43 C         141.4719  129.5932  155.0083 C.ar    1  UNL1        0.0208
     44 C         141.7168  131.0565  154.7879 C.ar    1  UNL1        0.0044
     45 C         142.6316  131.8106  155.7068 C.ar    1  UNL1        0.0332
     46 C         137.9407  143.6664  155.0148 C.3     1  UNL1        0.0040
     47 C         139.2531  142.9450  154.9301 C.3     1  UNL1        0.0474
     48 O         143.0792  141.8260  163.5496 O.3     1  UNL1       -0.3283
     49 C         142.6952  140.8179  164.5917 C.3     1  UNL1        0.2643
     50 O         143.7055  139.8231  165.0813 O.3     1  UNL1       -0.3311
     51 C         143.3215  138.8150  166.1235 C.3     1  UNL1        0.1194
     52 C         144.3318  137.8202  166.6131 C.3     1  UNL1        0.0322
     53 C         141.9270  138.8015  166.6761 C.3     1  UNL1        0.0482
     54 C         140.9166  139.7963  166.1866 C.3     1  UNL1        0.0921
     55 C         141.3008  140.8045  165.1443 C.3     1  UNL1        0.1815
     56 O         140.2904  141.7992  164.6548 O.3     1  UNL1       -0.3783
     57 H         139.4465  141.6540  165.1106 H       1  UNL1        0.2106
     58 N         139.5222  139.7829  166.7392 N.3     1  UNL1       -0.2692
     59 C         139.2848  140.1092  168.1838 C.3     1  UNL1        0.0897
     60 C         138.3652  139.4431  165.8471 C.3     1  UNL1        0.0897
@<TRIPOS>BOND
     1    46    47    1
     2     1    47    1
     3     1     2    1
     4     2     3    1
     5     3     4    2
     6     3     5    1
     7     5     6    1
     8     5     7    1
     9     7     8    2
    10     7     9    1
    11     9    10    1
    12     9    11    1
    13    11    48    1
    14    49    48    1
    15    49    50    1
    16    50    51    1
    17    51    52    1
    18    51    53    1
    19    53    54    1
    20    54    58    1
    21    58    59    1
    22    58    60    1
    23    54    55    1
    24    55    56    1
    25    11    12    1
    26    12    13    1
    27    12    14    1
    28    12    15    1
    29    15    16    1
    30    16    17    1
    31    16    18    1
    32    18    19    2
    33    18    20    1
    34    20    21    1
    35    20    22    1
    36    22    23    1
    37    23    30    1
    38    30    31    1
    39    31    32    1
    40    32    34    1
    41    34    35    1
    42    34    36    1
    43    36    37   ar
    44    37    38   ar
    45    38    39   ar
    46    39    40   ar
    47    40    41   ar
    48    41    42   ar
    49    42    43   ar
    50    43    44   ar
    51    44    45   ar
    52    32    33    1
    53    23    24   am
    54    24    25    2
    55    24    26    1
    56    26    27    1
    57    27    28    1
    58    27     1    1
    59    55    49    1
    60    27    22    1
    61    33    30    1
    62    45    36   ar
    63    45    40   ar
    64    56    57    1
    65    14    29    1
@<TRIPOS>MOLECULE
*****
 60 65 0 0 0
SMALL
GASTEIGER

@<TRIPOS>ATOM
      1 C         141.8268  136.7954  156.6781 C.3     1  UNL1        0.2066
      2 O         141.1650  136.3396  155.4115 O.3     1  UNL1       -0.4483
      3 C         140.1681  136.4411  154.2953 C.2     1  UNL1        0.3235
      4 O         140.4776  135.2339  153.4604 O.2     1  UNL1       -0.2496
      5 C         139.0335  137.0799  153.5507 C.3     1  UNL1        0.1563
      6 C         138.8380  136.1571  152.3845 C.3     1  UNL1        0.0196
      7 C         137.9858  138.1294  153.3250 C.2     1  UNL1        0.1629
      8 O         137.3241  137.6736  152.0584 O.2     1  UNL1       -0.2954
      9 C         137.2326  139.3818  153.6631 C.3     1  UNL1        0.0877
     10 C         136.2357  139.4833  152.5469 C.3     1  UNL1        0.0104
     11 C         136.9231  140.5890  154.4979 C.3     1  UNL1        0.1490
     12 C         137.1186  141.5119  155.6642 C.3     1  UNL1        0.1141
     13 C         136.0053  141.9807  154.7748 C.3     1  UNL1        0.0318
     14 O         136.5006  142.7773  156.1806 O.3     1  UNL1       -0.3843
     15 C         137.7803  141.9677  156.9308 C.3     1  UNL1        0.0367
     16 C         138.7772  141.8662  158.0469 C.3     1  UNL1        0.0601
     17 C         138.4677  143.0734  158.8818 C.3     1  UNL1        0.0078
     18 C         139.9119  141.2274  158.7916 C.2     1  UNL1        0.1516
     19 O         140.1074  142.1502  159.9578 O.2     1  UNL1       -0.2960
     20 C         140.9596  140.1779  159.0173 C.3     1  UNL1        0.0794
     21 C         141.6213  140.6337  160.2838 C.3     1  UNL1        0.0096
     22 C         141.7127  138.9255  158.6791 C.3     1  UNL1        0.1254
     23 N         142.6568  138.9374  159.8447 N.am    1  UNL1       -0.2426
     24 C         143.5498  137.7376  159.7303 C.2     1  UNL1        0.4049
     25 O         144.6430  137.3579  160.6847 O.2     1  UNL1       -0.2262
     26 O         143.1576  136.9842  158.4940 O.3     1  UNL1       -0.4365
     27 C         142.0222  137.7183  157.8443 C.3     1  UNL1        0.1908
     28 C         142.7365  136.4590  157.4518 C.3     1  UNL1        0.0493
     29 H         135.7861  143.0544  155.5859 H       1  UNL1        0.2103
     30 C         142.7002  139.9682  160.9336 C.3     1  UNL1        0.1105
     31 C         142.1967  140.0423  162.3446 C.3     1  UNL1        0.0939
     32 N         142.7617  141.4259  162.4735 N.3     1  UNL1       -0.2674
     33 C         143.2652  141.3517  161.0625 C.3     1  UNL1        0.0939
     34 C         142.8050  142.4566  163.5624 C.3     1  UNL1        0.0804
     35 C         143.9802  143.3823  163.6726 C.3     1  UNL1        0.0222
     36 C         141.6732  142.5617  164.5411 C.ar    1  UNL1       -0.0033
     37 C         140.5717  143.5533  164.3103 C.ar    1  UNL1        0.0178
     38 C         139.4398  143.6583  165.2891 C.ar    1  UNL1        0.1003
     39 N         139.4096  142.7717  166.4986 N.ar    1  UNL1       -0.2251
     40 C         140.5111  141.7801  166.7295 C.ar    1  UNL1        0.1620
     41 N         140.4808  140.8936  167.9390 N.ar    1  UNL1       -0.2251
     42 C         141.5824  139.9019  168.1699 C.ar    1  UNL1        0.1006
     43 C         142.7142  139.7970  167.1911 C.ar    1  UNL1        0.0208
     44 C         142.7445  140.6835  165.9816 C.ar    1  UNL1        0.0044
     45 C         141.6429  141.6751  165.7507 C.ar    1  UNL1        0.0332
     46 C         142.5814  134.3114  156.5780 C.3     1  UNL1        0.0040
     47 C         142.8744  135.7459  156.9037 C.3     1  UNL1        0.0474
     48 O         135.7885  141.2278  153.7533 O.3     1  UNL1       -0.3283
     49 C         134.3982  141.1726  154.3137 C.3     1  UNL1        0.2643
     50 O         134.1458  140.4966  155.6287 O.3     1  UNL1       -0.3311
     51 C         132.7555  140.4414  156.1891 C.3     1  UNL1        0.1194
     52 C         132.5032  139.7654  157.5041 C.3     1  UNL1        0.0322
     53 C         131.6175  141.0623  155.4344 C.3     1  UNL1        0.0482
     54 C         131.8699  141.7383  154.1193 C.3     1  UNL1        0.0921
     55 C         133.2602  141.7935  153.5590 C.3     1  UNL1        0.1815
     56 O         133.5125  142.4695  152.2439 O.3     1  UNL1       -0.3783
     57 H         132.6770  142.8144  151.8921 H       1  UNL1        0.2106
     58 N         130.7319  142.3592  153.3647 N.3     1  UNL1       -0.2692
     59 C         130.3181  141.7983  152.0365 C.3     1  UNL1        0.0897
     60 C         130.0077  143.5410  153.9383 C.3     1  UNL1        0.0897
@<TRIPOS>BOND
     1    46    47    1
     2     1    47    1
     3     1     2    1
     4     2     3    1
     5     3     4    2
     6     3     5    1
     7     5     6    1
     8     5     7    1
     9     7     8    2
    10     7     9    1
    11     9    10    1
    12     9    11    1
    13    11    48    1
    14    49    48    1
    15    49    50    1
    16    50    51    1
    17    51    52    1
    18    51    53    1
    19    53    54    1
    20    54    58    1
    21    58    59    1
    22    58    60    1
    23    54    55    1
    24    55    56    1
    25    11    12    1
    26    12    13    1
    27    12    14    1
    28    12    15    1
    29    15    16    1
    30    16    17    1
    31    16    18    1
    32    18    19    2
    33    18    20    1
    34    20    21    1
    35    20    22    1
    36    22    23    1
    37    23    30    1
    38    30    31    1
    39    31    32    1
    40    32    34    1
    41    34    35    1
    42    34    36    1
    43    36    37   ar
    44    37    38   ar
    45    38    39   ar
    46    39    40   ar
    47    40    41   ar
    48    41    42   ar
    49    42    43   ar
    50    43    44   ar
    51    44    45   ar
    52    32    33    1
    53    23    24   am
    54    24    25    2
    55    24    26    1
    56    26    27    1
    57    27    28    1
    58    27     1    1
    59    55    49    1
    60    27    22    1
    61    33    30    1
    62    45    36   ar
    63    45    40   ar
    64    56    57    1
    65    14    29    1
