@<TRIPOS>MOLECULE
*****
 33 36 0 0 0
SMALL
GASTEIGER

@<TRIPOS>ATOM
      1 C         139.8425  138.0981  163.1511 C.ar    1  UNL1        0.1534
      2 C         138.8107  137.9456  164.2291 C.ar    1  UNL1        0.0591
      3 C         139.0069  138.6179  165.5556 C.ar    1  UNL1        0.1072
      4 N         137.9750  138.4654  166.6336 N.ar    1  UNL1       -0.1477
      5 N         138.1712  139.1377  167.9601 N.ar    1  UNL1       -0.1421
      6 C         139.3992  139.9626  168.2085 C.ar    1  UNL1        0.1690
      7 C         140.4310  140.1151  167.1305 C.ar    1  UNL1        0.0740
      8 C         140.2348  139.4428  165.8040 C.ar    1  UNL1        0.0359
      9 C         141.2666  139.5953  164.7260 C.ar    1  UNL1        0.0204
     10 C         141.0704  138.9230  163.3995 C.ar    1  UNL1        0.0826
     11 N         142.1023  139.0755  162.3215 N.pl3   1  UNL1       -0.3004
     12 C         143.1244  137.9994  162.1040 C.3     1  UNL1        0.1231
     13 C         144.1562  138.1519  161.0260 C.3     1  UNL1        0.1636
     14 O         144.1659  139.3806  160.1655 O.3     1  UNL1       -0.3501
     15 C         143.1438  140.4567  160.3830 C.3     1  UNL1        0.1636
     16 C         142.1120  140.3041  161.4611 C.3     1  UNL1        0.1231
     17 C         139.5954  140.6349  169.5349 C.2     1  UNL1        0.2635
     18 N         139.4401  139.8501  170.8038 N.am    1  UNL1       -0.3240
     19 O         139.9468  142.0920  169.5926 O.2     1  UNL1       -0.2686
     20 H         139.2095  138.8937  170.7660 H       1  UNL1        0.1453
     21 H         139.5689  140.2914  171.6744 H       1  UNL1        0.1453
     22 C         139.0867  138.1989  160.6674 C.3     1  UNL1        0.2525
     23 O         139.6463  137.4258  161.8246 O.3     1  UNL1       -0.4701
     24 N         141.6589  140.9400  167.3789 N.pl3   1  UNL1       -0.3094
     25 H         142.1832  140.8069  168.2015 H       1  UNL1        0.1523
     26 C         142.0881  141.9676  166.3740 C.ar    1  UNL1        0.0761
     27 C         143.5312  142.0728  165.9784 C.ar    1  UNL1        0.0166
     28 C         143.9604  143.1004  164.9735 C.ar    1  UNL1       -0.0028
     29 C         142.9465  144.0229  164.3642 C.ar    1  UNL1       -0.0195
     30 C         143.3758  145.0505  163.3594 C.3     1  UNL1        0.0311
     31 C         141.5035  143.9177  164.7599 C.ar    1  UNL1        0.0267
     32 C         141.0743  142.8901  165.7648 C.ar    1  UNL1        0.1531
     33 F         139.6312  142.7849  166.1604 F       1  UNL1       -0.2029
@<TRIPOS>BOND
     1    22    23    1
     2    23     1    1
     3     1     2   ar
     4     2     3   ar
     5     3     4   ar
     6     4     5   ar
     7     5     6   ar
     8     6    17    1
     9    17    18   am
    10    17    19    2
    11     6     7   ar
    12     7    24    1
    13    24    26    1
    14    26    27   ar
    15    27    28   ar
    16    28    29   ar
    17    29    30    1
    18    29    31   ar
    19    31    32   ar
    20    32    33    1
    21     7     8   ar
    22     8     9   ar
    23     9    10   ar
    24    10    11    1
    25    11    12    1
    26    12    13    1
    27    13    14    1
    28    14    15    1
    29    15    16    1
    30    10     1   ar
    31    16    11    1
    32     8     3   ar
    33    32    26   ar
    34    18    20    1
    35    18    21    1
    36    24    25    1
@<TRIPOS>MOLECULE
*****
 33 36 0 0 0
SMALL
GASTEIGER

@<TRIPOS>ATOM
      1 C         138.1188  141.1458  162.9329 C.ar    1  UNL1        0.1534
      2 C         137.5865  140.2189  163.9854 C.ar    1  UNL1        0.0591
      3 C         138.2608  140.1366  165.3228 C.ar    1  UNL1        0.1072
      4 N         137.7285  139.2097  166.3752 N.ar    1  UNL1       -0.1477
      5 N         138.4027  139.1273  167.7126 N.ar    1  UNL1       -0.1421
      6 C         139.6092  139.9719  167.9976 C.ar    1  UNL1        0.1690
      7 C         140.1414  140.8988  166.9452 C.ar    1  UNL1        0.0740
      8 C         139.4672  140.9811  165.6077 C.ar    1  UNL1        0.0359
      9 C         139.9994  141.9079  164.5553 C.ar    1  UNL1        0.0204
     10 C         139.3252  141.9903  163.2179 C.ar    1  UNL1        0.0826
     11 N         139.8575  142.9172  162.1655 N.pl3   1  UNL1       -0.3004
     12 C         139.5250  144.3790  162.2158 C.3     1  UNL1        0.1231
     13 C         140.0572  145.3059  161.1634 C.3     1  UNL1        0.1636
     14 O         140.9220  144.7710  160.0606 O.3     1  UNL1       -0.3501
     15 C         141.2545  143.3092  160.0103 C.3     1  UNL1        0.1636
     16 C         140.7222  142.3823  161.0628 C.3     1  UNL1        0.1231
     17 C         140.2834  139.8896  169.3350 C.2     1  UNL1        0.2635
     18 N         139.4633  139.9093  170.5908 N.am    1  UNL1       -0.3240
     19 O         141.7777  139.7875  169.4166 O.2     1  UNL1       -0.2686
     20 H         138.4825  139.9763  170.5373 H       1  UNL1        0.1453
     21 H         139.9058  139.8553  171.4686 H       1  UNL1        0.1453
     22 C         137.5971  140.1090  160.6085 C.3     1  UNL1        0.2525
     23 O         137.4445  141.2281  161.5955 O.3     1  UNL1       -0.4701
     24 N         141.3479  141.7433  167.2301 N.pl3   1  UNL1       -0.3094
     25 H         141.3719  142.3123  168.0332 H       1  UNL1        0.1523
     26 C         142.5178  141.7208  166.2916 C.ar    1  UNL1        0.0761
     27 C         143.1427  143.0079  165.8411 C.ar    1  UNL1        0.0166
     28 C         144.3126  142.9854  164.9026 C.ar    1  UNL1       -0.0028
     29 C         144.8576  141.6759  164.4145 C.ar    1  UNL1       -0.0195
     30 C         146.0275  141.6535  163.4760 C.3     1  UNL1        0.0311
     31 C         144.2327  140.3888  164.8650 C.ar    1  UNL1        0.0267
     32 C         143.0628  140.4113  165.8035 C.ar    1  UNL1        0.1531
     33 F         142.4378  139.1242  166.2540 F       1  UNL1       -0.2029
@<TRIPOS>BOND
     1    22    23    1
     2    23     1    1
     3     1     2   ar
     4     2     3   ar
     5     3     4   ar
     6     4     5   ar
     7     5     6   ar
     8     6    17    1
     9    17    18   am
    10    17    19    2
    11     6     7   ar
    12     7    24    1
    13    24    26    1
    14    26    27   ar
    15    27    28   ar
    16    28    29   ar
    17    29    30    1
    18    29    31   ar
    19    31    32   ar
    20    32    33    1
    21     7     8   ar
    22     8     9   ar
    23     9    10   ar
    24    10    11    1
    25    11    12    1
    26    12    13    1
    27    13    14    1
    28    14    15    1
    29    15    16    1
    30    10     1   ar
    31    16    11    1
    32     8     3   ar
    33    32    26   ar
    34    18    20    1
    35    18    21    1
    36    24    25    1
@<TRIPOS>MOLECULE
*****
 33 36 0 0 0
SMALL
GASTEIGER

@<TRIPOS>ATOM
      1 C         142.2604  139.7044  167.5863 C.ar    1  UNL1        0.1534
      2 C         142.7278  138.8035  166.4819 C.ar    1  UNL1        0.0591
      3 C         142.0001  138.7850  165.1704 C.ar    1  UNL1        0.1072
      4 N         142.4677  137.8841  164.0659 N.ar    1  UNL1       -0.1477
      5 N         141.7400  137.8656  162.7543 N.ar    1  UNL1       -0.1421
      6 C         140.5448  138.7481  162.5473 C.ar    1  UNL1        0.1690
      7 C         140.0773  139.6489  163.6517 C.ar    1  UNL1        0.0740
      8 C         140.8050  139.6674  164.9633 C.ar    1  UNL1        0.0359
      9 C         140.3375  140.5683  166.0677 C.ar    1  UNL1        0.0204
     10 C         141.0652  140.5868  167.3793 C.ar    1  UNL1        0.0826
     11 N         140.5976  141.4877  168.4837 N.pl3   1  UNL1       -0.3004
     12 C         139.6524  140.9680  169.5261 C.3     1  UNL1        0.1231
     13 C         139.1848  141.8689  170.6305 C.3     1  UNL1        0.1636
     14 O         139.6625  143.2895  170.6927 O.3     1  UNL1       -0.3501
     15 C         140.6078  143.8091  169.6504 C.3     1  UNL1        0.1636
     16 C         141.0753  142.9082  168.5459 C.3     1  UNL1        0.1231
     17 C         139.8171  138.7296  161.2358 C.2     1  UNL1        0.2635
     18 N         140.5822  138.8550  159.9517 N.am    1  UNL1       -0.3240
     19 O         138.3243  138.5856  161.2083 O.2     1  UNL1       -0.2686
     20 H         141.5620  138.9495  159.9697 H       1  UNL1        0.1453
     21 H         140.1047  138.8429  159.0908 H       1  UNL1        0.1453
     22 C         142.5822  138.7830  169.9941 C.3     1  UNL1        0.2525
     23 O         142.9880  139.7229  168.8979 O.3     1  UNL1       -0.4701
     24 N         138.8821  140.5313  163.4447 N.pl3   1  UNL1       -0.3094
     25 H         137.9754  140.1707  163.5757 H       1  UNL1        0.1523
     26 C         139.0683  141.9631  163.0380 C.ar    1  UNL1        0.0761
     27 C         140.0382  142.3132  161.9486 C.ar    1  UNL1        0.0166
     28 C         140.2245  143.7450  161.5419 C.ar    1  UNL1       -0.0028
     29 C         139.4408  144.8266  162.2245 C.ar    1  UNL1       -0.0195
     30 C         139.6270  146.2583  161.8178 C.3     1  UNL1        0.0311
     31 C         138.4709  144.4765  163.3139 C.ar    1  UNL1        0.0267
     32 C         138.2846  143.0447  163.7206 C.ar    1  UNL1        0.1531
     33 F         137.3147  142.6945  164.8099 F       1  UNL1       -0.2029
@<TRIPOS>BOND
     1    22    23    1
     2    23     1    1
     3     1     2   ar
     4     2     3   ar
     5     3     4   ar
     6     4     5   ar
     7     5     6   ar
     8     6    17    1
     9    17    18   am
    10    17    19    2
    11     6     7   ar
    12     7    24    1
    13    24    26    1
    14    26    27   ar
    15    27    28   ar
    16    28    29   ar
    17    29    30    1
    18    29    31   ar
    19    31    32   ar
    20    32    33    1
    21     7     8   ar
    22     8     9   ar
    23     9    10   ar
    24    10    11    1
    25    11    12    1
    26    12    13    1
    27    13    14    1
    28    14    15    1
    29    15    16    1
    30    10     1   ar
    31    16    11    1
    32     8     3   ar
    33    32    26   ar
    34    18    20    1
    35    18    21    1
    36    24    25    1
@<TRIPOS>MOLECULE
*****
 33 36 0 0 0
SMALL
GASTEIGER

@<TRIPOS>ATOM
      1 C         138.3854  140.1832  165.5631 C.ar    1  UNL1        0.1534
      2 C         137.6498  140.6505  164.3422 C.ar    1  UNL1        0.0591
      3 C         138.1555  141.8316  163.5681 C.ar    1  UNL1        0.1072
      4 N         137.4199  142.2989  162.3471 N.ar    1  UNL1       -0.1477
      5 N         137.9256  143.4800  161.5731 N.ar    1  UNL1       -0.1421
      6 C         139.1669  144.1940  162.0200 C.ar    1  UNL1        0.1690
      7 C         139.9024  143.7267  163.2409 C.ar    1  UNL1        0.0740
      8 C         139.3967  142.5456  164.0150 C.ar    1  UNL1        0.0359
      9 C         140.1322  142.0783  165.2359 C.ar    1  UNL1        0.0204
     10 C         139.6265  140.8972  166.0099 C.ar    1  UNL1        0.0826
     11 N         140.3621  140.4299  167.2309 N.pl3   1  UNL1       -0.3004
     12 C         141.7407  139.8533  167.1011 C.3     1  UNL1        0.1231
     13 C         142.4763  139.3861  168.3219 C.3     1  UNL1        0.1636
     14 O         141.8333  139.4955  169.6728 O.3     1  UNL1       -0.3501
     15 C         140.4547  140.0722  169.8026 C.3     1  UNL1        0.1636
     16 C         139.7191  140.5394  168.5816 C.3     1  UNL1        0.1231
     17 C         139.6725  145.3751  161.2460 C.2     1  UNL1        0.2635
     18 N         139.9518  145.2459  159.7778 N.am    1  UNL1       -0.3240
     19 O         139.8989  146.6855  161.9400 O.2     1  UNL1       -0.2686
     20 H         139.8032  144.3858  159.3223 H       1  UNL1        0.1453
     21 H         140.2837  146.0211  159.2698 H       1  UNL1        0.1453
     22 C         138.2668  137.6131  165.9239 C.3     1  UNL1        0.2525
     23 O         137.8797  139.0021  166.3371 O.3     1  UNL1       -0.4701
     24 N         141.1435  144.4407  163.6878 N.pl3   1  UNL1       -0.3094
     25 H         141.0956  145.3835  163.9670 H       1  UNL1        0.1523
     26 C         142.4579  143.7180  163.7093 C.ar    1  UNL1        0.0761
     27 C         143.2700  143.6759  164.9697 C.ar    1  UNL1        0.0166
     28 C         144.5843  142.9533  164.9912 C.ar    1  UNL1       -0.0028
     29 C         145.0865  142.2728  163.7524 C.ar    1  UNL1       -0.0195
     30 C         146.4008  141.5502  163.7739 C.3     1  UNL1        0.0311
     31 C         144.2743  142.3149  162.4920 C.ar    1  UNL1        0.0267
     32 C         142.9600  143.0375  162.4704 C.ar    1  UNL1        0.1531
     33 F         142.1478  143.0796  161.2100 F       1  UNL1       -0.2029
@<TRIPOS>BOND
     1    22    23    1
     2    23     1    1
     3     1     2   ar
     4     2     3   ar
     5     3     4   ar
     6     4     5   ar
     7     5     6   ar
     8     6    17    1
     9    17    18   am
    10    17    19    2
    11     6     7   ar
    12     7    24    1
    13    24    26    1
    14    26    27   ar
    15    27    28   ar
    16    28    29   ar
    17    29    30    1
    18    29    31   ar
    19    31    32   ar
    20    32    33    1
    21     7     8   ar
    22     8     9   ar
    23     9    10   ar
    24    10    11    1
    25    11    12    1
    26    12    13    1
    27    13    14    1
    28    14    15    1
    29    15    16    1
    30    10     1   ar
    31    16    11    1
    32     8     3   ar
    33    32    26   ar
    34    18    20    1
    35    18    21    1
    36    24    25    1
@<TRIPOS>MOLECULE
*****
 33 36 0 0 0
SMALL
GASTEIGER

@<TRIPOS>ATOM
      1 C         139.0601  138.3863  163.9774 C.ar    1  UNL1        0.1534
      2 C         138.5746  138.2248  165.3874 C.ar    1  UNL1        0.0591
      3 C         139.0145  139.1906  166.4474 C.ar    1  UNL1        0.1072
      4 N         138.5289  139.0290  167.8574 N.ar    1  UNL1       -0.1477
      5 N         138.9688  139.9949  168.9174 N.ar    1  UNL1       -0.1421
      6 C         139.8942  141.1223  168.5674 C.ar    1  UNL1        0.1690
      7 C         140.3797  141.2839  167.1574 C.ar    1  UNL1        0.0740
      8 C         139.9399  140.3180  166.0974 C.ar    1  UNL1        0.0359
      9 C         140.4254  140.4796  164.6874 C.ar    1  UNL1        0.0204
     10 C         139.9855  139.5138  163.6274 C.ar    1  UNL1        0.0826
     11 N         140.4710  139.6754  162.2173 N.pl3   1  UNL1       -0.3004
     12 C         141.4747  138.7130  161.6548 C.3     1  UNL1        0.1231
     13 C         141.9602  138.8745  160.2448 C.3     1  UNL1        0.1636
     14 O         141.4421  139.9986  159.3973 O.3     1  UNL1       -0.3501
     15 C         140.4385  140.9610  159.9598 C.3     1  UNL1        0.1636
     16 C         139.9529  140.7994  161.3699 C.3     1  UNL1        0.1231
     17 C         140.3341  142.0882  169.6274 C.2     1  UNL1        0.2635
     18 N         139.4045  142.4452  170.7492 N.am    1  UNL1       -0.3240
     19 O         141.7036  142.6970  169.5657 O.2     1  UNL1       -0.2686
     20 H         138.5056  142.0456  170.7897 H       1  UNL1        0.1453
     21 H         139.6932  143.0791  171.4449 H       1  UNL1        0.1453
     22 C         137.7247  137.8828  161.8064 C.3     1  UNL1        0.2525
     23 O         138.6202  137.4205  162.9173 O.3     1  UNL1       -0.4701
     24 N         141.3051  142.4113  166.8074 N.pl3   1  UNL1       -0.3094
     25 H         142.1209  142.5612  167.3377 H       1  UNL1        0.1523
     26 C         140.9876  143.3104  165.6494 C.ar    1  UNL1        0.0761
     27 C         139.6119  143.8907  165.5058 C.ar    1  UNL1        0.0166
     28 C         139.2943  144.7897  164.3478 C.ar    1  UNL1       -0.0028
     29 C         140.3524  145.1085  163.3335 C.ar    1  UNL1       -0.0195
     30 C         140.0348  146.0075  162.1755 C.3     1  UNL1        0.0311
     31 C         141.7281  144.5281  163.4771 C.ar    1  UNL1        0.0267
     32 C         142.0457  143.6290  164.6351 C.ar    1  UNL1        0.1531
     33 F         143.4214  143.0487  164.7788 F       1  UNL1       -0.2029
@<TRIPOS>BOND
     1    22    23    1
     2    23     1    1
     3     1     2   ar
     4     2     3   ar
     5     3     4   ar
     6     4     5   ar
     7     5     6   ar
     8     6    17    1
     9    17    18   am
    10    17    19    2
    11     6     7   ar
    12     7    24    1
    13    24    26    1
    14    26    27   ar
    15    27    28   ar
    16    28    29   ar
    17    29    30    1
    18    29    31   ar
    19    31    32   ar
    20    32    33    1
    21     7     8   ar
    22     8     9   ar
    23     9    10   ar
    24    10    11    1
    25    11    12    1
    26    12    13    1
    27    13    14    1
    28    14    15    1
    29    15    16    1
    30    10     1   ar
    31    16    11    1
    32     8     3   ar
    33    32    26   ar
    34    18    20    1
    35    18    21    1
    36    24    25    1
@<TRIPOS>MOLECULE
*****
 33 36 0 0 0
SMALL
GASTEIGER

@<TRIPOS>ATOM
      1 C         139.0578  138.9933  166.7391 C.ar    1  UNL1        0.1534
      2 C         138.7592  138.2474  165.4725 C.ar    1  UNL1        0.0591
      3 C         139.7820  138.1904  164.3767 C.ar    1  UNL1        0.1072
      4 N         139.4834  137.4444  163.1100 N.ar    1  UNL1       -0.1477
      5 N         140.5061  137.3875  162.0143 N.ar    1  UNL1       -0.1421
      6 C         141.8276  138.0765  162.1852 C.ar    1  UNL1        0.1690
      7 C         142.1262  138.8224  163.4518 C.ar    1  UNL1        0.0740
      8 C         141.1034  138.8794  164.5476 C.ar    1  UNL1        0.0359
      9 C         141.4020  139.6253  165.8142 C.ar    1  UNL1        0.0204
     10 C         140.3792  139.6823  166.9100 C.ar    1  UNL1        0.0826
     11 N         140.6778  140.4282  168.1767 N.pl3   1  UNL1       -0.3004
     12 C         140.3205  141.8803  168.2939 C.3     1  UNL1        0.1231
     13 C         140.6191  142.6263  169.5605 C.3     1  UNL1        0.1636
     14 O         141.2751  141.9202  170.7099 O.3     1  UNL1       -0.3501
     15 C         141.6324  140.4681  170.5927 C.3     1  UNL1        0.1636
     16 C         141.3338  139.7221  169.3260 C.3     1  UNL1        0.1231
     17 C         142.8504  138.0196  161.0895 C.2     1  UNL1        0.2635
     18 N         142.4564  138.3414  159.6783 N.am    1  UNL1       -0.3240
     19 O         144.2671  137.6409  161.4048 O.2     1  UNL1       -0.2686
     20 H         141.5265  138.5899  159.4713 H       1  UNL1        0.1453
     21 H         143.1276  138.3040  158.9591 H       1  UNL1        0.1453
     22 C         136.9283  138.0388  167.8811 C.3     1  UNL1        0.2525
     23 O         138.0350  139.0502  167.8349 O.3     1  UNL1       -0.4701
     24 N         143.4475  139.5114  163.6227 N.pl3   1  UNL1       -0.3094
     25 H         144.2754  138.9815  163.6784 H       1  UNL1        0.1523
     26 C         143.5076  141.0078  163.7087 C.ar    1  UNL1        0.0761
     27 C         144.2164  141.6652  164.8556 C.ar    1  UNL1        0.0166
     28 C         144.2765  143.1615  164.9416 C.ar    1  UNL1       -0.0028
     29 C         143.6277  144.0005  163.8808 C.ar    1  UNL1       -0.0195
     30 C         143.6878  145.4968  163.9668 C.3     1  UNL1        0.0311
     31 C         142.9189  143.3430  162.7339 C.ar    1  UNL1        0.0267
     32 C         142.8588  141.8466  162.6479 C.ar    1  UNL1        0.1531
     33 F         142.1500  141.1892  161.5010 F       1  UNL1       -0.2029
@<TRIPOS>BOND
     1    22    23    1
     2    23     1    1
     3     1     2   ar
     4     2     3   ar
     5     3     4   ar
     6     4     5   ar
     7     5     6   ar
     8     6    17    1
     9    17    18   am
    10    17    19    2
    11     6     7   ar
    12     7    24    1
    13    24    26    1
    14    26    27   ar
    15    27    28   ar
    16    28    29   ar
    17    29    30    1
    18    29    31   ar
    19    31    32   ar
    20    32    33    1
    21     7     8   ar
    22     8     9   ar
    23     9    10   ar
    24    10    11    1
    25    11    12    1
    26    12    13    1
    27    13    14    1
    28    14    15    1
    29    15    16    1
    30    10     1   ar
    31    16    11    1
    32     8     3   ar
    33    32    26   ar
    34    18    20    1
    35    18    21    1
    36    24    25    1
@<TRIPOS>MOLECULE
*****
 33 36 0 0 0
SMALL
GASTEIGER

@<TRIPOS>ATOM
      1 C         143.8208  142.1601  164.5303 C.ar    1  UNL1        0.1534
      2 C         143.6672  142.6486  165.9402 C.ar    1  UNL1        0.0591
      3 C         142.6770  141.9939  166.8571 C.ar    1  UNL1        0.1072
      4 N         142.5234  142.4824  168.2670 N.ar    1  UNL1       -0.1477
      5 N         141.5332  141.8277  169.1840 N.ar    1  UNL1       -0.1421
      6 C         140.6965  140.6844  168.6910 C.ar    1  UNL1        0.1690
      7 C         140.8501  140.1959  167.2811 C.ar    1  UNL1        0.0740
      8 C         141.8404  140.8506  166.3642 C.ar    1  UNL1        0.0359
      9 C         141.9940  140.3621  164.9543 C.ar    1  UNL1        0.0204
     10 C         142.9842  141.0169  164.0374 C.ar    1  UNL1        0.0826
     11 N         143.1378  140.5283  162.6275 N.pl3   1  UNL1       -0.3004
     12 C         142.4084  141.2162  161.5117 C.3     1  UNL1        0.1231
     13 C         142.5620  140.7278  160.1019 C.3     1  UNL1        0.1636
     14 O         143.4449  139.5513  159.8077 O.3     1  UNL1       -0.3501
     15 C         144.1742  138.8633  160.9234 C.3     1  UNL1        0.1636
     16 C         144.0206  139.3519  162.3333 C.3     1  UNL1        0.1231
     17 C         139.7063  140.0296  169.6079 C.2     1  UNL1        0.2635
     18 N         140.0603  139.7895  171.0457 N.am    1  UNL1       -0.3240
     19 O         138.3621  139.6150  169.0871 O.2     1  UNL1       -0.2686
     20 H         140.9425  140.0617  171.3875 H       1  UNL1        0.1453
     21 H         139.4104  139.3598  171.6475 H       1  UNL1        0.1453
     22 C         144.3977  143.9919  162.7806 C.3     1  UNL1        0.2525
     23 O         144.8110  142.8149  163.6134 O.3     1  UNL1       -0.4701
     24 N         140.0135  139.0526  166.7882 N.pl3   1  UNL1       -0.3094
     25 H         139.8721  138.2638  167.3600 H       1  UNL1        0.1523
     26 C         139.3923  139.1113  165.4240 C.ar    1  UNL1        0.0761
     27 C         138.4942  140.2554  165.0575 C.ar    1  UNL1        0.0166
     28 C         137.8730  140.3141  163.6935 C.ar    1  UNL1       -0.0028
     29 C         138.1500  139.2287  162.6959 C.ar    1  UNL1       -0.0195
     30 C         137.5289  139.2874  161.3318 C.3     1  UNL1        0.0311
     31 C         139.0482  138.0846  163.0624 C.ar    1  UNL1        0.0267
     32 C         139.6694  138.0259  164.4265 C.ar    1  UNL1        0.1531
     33 F         140.5675  136.8818  164.7930 F       1  UNL1       -0.2029
@<TRIPOS>BOND
     1    22    23    1
     2    23     1    1
     3     1     2   ar
     4     2     3   ar
     5     3     4   ar
     6     4     5   ar
     7     5     6   ar
     8     6    17    1
     9    17    18   am
    10    17    19    2
    11     6     7   ar
    12     7    24    1
    13    24    26    1
    14    26    27   ar
    15    27    28   ar
    16    28    29   ar
    17    29    30    1
    18    29    31   ar
    19    31    32   ar
    20    32    33    1
    21     7     8   ar
    22     8     9   ar
    23     9    10   ar
    24    10    11    1
    25    11    12    1
    26    12    13    1
    27    13    14    1
    28    14    15    1
    29    15    16    1
    30    10     1   ar
    31    16    11    1
    32     8     3   ar
    33    32    26   ar
    34    18    20    1
    35    18    21    1
    36    24    25    1
@<TRIPOS>MOLECULE
*****
 33 36 0 0 0
SMALL
GASTEIGER

@<TRIPOS>ATOM
      1 C         143.1921  143.6040  164.4308 C.ar    1  UNL1        0.1534
      2 C         143.7682  143.1780  165.7486 C.ar    1  UNL1        0.0591
      3 C         142.9352  142.3823  166.7092 C.ar    1  UNL1        0.1072
      4 N         143.5114  141.9563  168.0271 N.ar    1  UNL1       -0.1477
      5 N         142.6784  141.1605  168.9877 N.ar    1  UNL1       -0.1421
      6 C         141.2692  140.7907  168.6306 C.ar    1  UNL1        0.1690
      7 C         140.6931  141.2167  167.3128 C.ar    1  UNL1        0.0740
      8 C         141.5261  142.0125  166.3521 C.ar    1  UNL1        0.0359
      9 C         140.9500  142.4384  165.0344 C.ar    1  UNL1        0.0204
     10 C         141.7829  143.2342  164.0737 C.ar    1  UNL1        0.0826
     11 N         141.2067  143.6601  162.7558 N.pl3   1  UNL1       -0.3004
     12 C         140.8097  145.0901  162.5380 C.3     1  UNL1        0.1231
     13 C         140.2335  145.5161  161.2202 C.3     1  UNL1        0.1636
     14 O         140.0543  144.5121  160.1203 O.3     1  UNL1       -0.3501
     15 C         140.4514  143.0821  160.3381 C.3     1  UNL1        0.1636
     16 C         141.0276  142.6561  161.6560 C.3     1  UNL1        0.1231
     17 C         140.4363  139.9950  169.5912 C.2     1  UNL1        0.2635
     18 N         141.0998  139.1120  170.6062 N.am    1  UNL1       -0.3240
     19 O         138.9398  140.0822  169.5370 O.2     1  UNL1       -0.2686
     20 H         142.0820  139.0548  170.6418 H       1  UNL1        0.1453
     21 H         140.5531  138.5897  171.2368 H       1  UNL1        0.1453
     22 C         144.5945  143.7422  162.2481 C.3     1  UNL1        0.2525
     23 O         144.0250  144.3998  163.4701 O.3     1  UNL1       -0.4701
     24 N         139.2840  140.8469  166.9557 N.pl3   1  UNL1       -0.3094
     25 H         138.5457  141.0744  167.5659 H       1  UNL1        0.1523
     26 C         138.9998  140.1304  165.6688 C.ar    1  UNL1        0.0761
     27 C         139.5459  138.7520  165.4415 C.ar    1  UNL1        0.0166
     28 C         139.2617  138.0355  164.1547 C.ar    1  UNL1       -0.0028
     29 C         138.4313  138.6974  163.0952 C.ar    1  UNL1       -0.0195
     30 C         138.1471  137.9808  161.8085 C.3     1  UNL1        0.0311
     31 C         137.8852  140.0758  163.3226 C.ar    1  UNL1        0.0267
     32 C         138.1694  140.7923  164.6095 C.ar    1  UNL1        0.1531
     33 F         137.6232  142.1707  164.8368 F       1  UNL1       -0.2029
@<TRIPOS>BOND
     1    22    23    1
     2    23     1    1
     3     1     2   ar
     4     2     3   ar
     5     3     4   ar
     6     4     5   ar
     7     5     6   ar
     8     6    17    1
     9    17    18   am
    10    17    19    2
    11     6     7   ar
    12     7    24    1
    13    24    26    1
    14    26    27   ar
    15    27    28   ar
    16    28    29   ar
    17    29    30    1
    18    29    31   ar
    19    31    32   ar
    20    32    33    1
    21     7     8   ar
    22     8     9   ar
    23     9    10   ar
    24    10    11    1
    25    11    12    1
    26    12    13    1
    27    13    14    1
    28    14    15    1
    29    15    16    1
    30    10     1   ar
    31    16    11    1
    32     8     3   ar
    33    32    26   ar
    34    18    20    1
    35    18    21    1
    36    24    25    1
@<TRIPOS>MOLECULE
*****
 33 36 0 0 0
SMALL
GASTEIGER

@<TRIPOS>ATOM
      1 C         139.1332  138.5039  163.5940 C.ar    1  UNL1        0.1534
      2 C         138.4983  138.5849  164.9506 C.ar    1  UNL1        0.0591
      3 C         139.2892  139.0923  166.1197 C.ar    1  UNL1        0.1072
      4 N         138.6542  139.1732  167.4764 N.ar    1  UNL1       -0.1477
      5 N         139.4451  139.6807  168.6455 N.ar    1  UNL1       -0.1421
      6 C         140.8710  140.1071  168.4581 C.ar    1  UNL1        0.1690
      7 C         141.5059  140.0262  167.1015 C.ar    1  UNL1        0.0740
      8 C         140.7150  139.5187  165.9324 C.ar    1  UNL1        0.0359
      9 C         141.3499  139.4378  164.5758 C.ar    1  UNL1        0.0204
     10 C         140.5590  138.9304  163.4066 C.ar    1  UNL1        0.0826
     11 N         141.1940  138.8494  162.0500 N.pl3   1  UNL1       -0.3004
     12 C         142.0610  137.6775  161.6965 C.3     1  UNL1        0.1231
     13 C         142.6959  137.5966  160.3400 C.3     1  UNL1        0.1636
     14 O         142.4639  138.6875  159.3369 O.3     1  UNL1       -0.3501
     15 C         141.5968  139.8593  159.6904 C.3     1  UNL1        0.1636
     16 C         140.9619  139.9403  161.0470 C.3     1  UNL1        0.1231
     17 C         141.6619  140.6145  169.6273 C.2     1  UNL1        0.2635
     18 N         141.0324  141.5637  170.6035 N.am    1  UNL1       -0.3240
     19 O         143.0824  140.1729  169.8203 O.2     1  UNL1       -0.2686
     20 H         140.1001  141.8535  170.4768 H       1  UNL1        0.1453
     21 H         141.5514  141.8967  171.3709 H       1  UNL1        0.1453
     22 C         137.5694  138.9558  161.5691 C.3     1  UNL1        0.2525
     23 O         138.3423  137.9965  162.4248 O.3     1  UNL1       -0.4701
     24 N         142.9317  140.4526  166.9142 N.pl3   1  UNL1       -0.3094
     25 H         143.6327  140.1020  167.5099 H       1  UNL1        0.1523
     26 C         143.2895  141.4133  165.8191 C.ar    1  UNL1        0.0761
     27 C         142.6405  142.7645  165.7651 C.ar    1  UNL1        0.0166
     28 C         142.9982  143.7252  164.6700 C.ar    1  UNL1       -0.0028
     29 C         144.0051  143.3346  163.6290 C.ar    1  UNL1       -0.0195
     30 C         144.3628  144.2953  162.5339 C.3     1  UNL1        0.0311
     31 C         144.6541  141.9834  163.6830 C.ar    1  UNL1        0.0267
     32 C         144.2963  141.0227  164.7781 C.ar    1  UNL1        0.1531
     33 F         144.9454  139.6715  164.8321 F       1  UNL1       -0.2029
@<TRIPOS>BOND
     1    22    23    1
     2    23     1    1
     3     1     2   ar
     4     2     3   ar
     5     3     4   ar
     6     4     5   ar
     7     5     6   ar
     8     6    17    1
     9    17    18   am
    10    17    19    2
    11     6     7   ar
    12     7    24    1
    13    24    26    1
    14    26    27   ar
    15    27    28   ar
    16    28    29   ar
    17    29    30    1
    18    29    31   ar
    19    31    32   ar
    20    32    33    1
    21     7     8   ar
    22     8     9   ar
    23     9    10   ar
    24    10    11    1
    25    11    12    1
    26    12    13    1
    27    13    14    1
    28    14    15    1
    29    15    16    1
    30    10     1   ar
    31    16    11    1
    32     8     3   ar
    33    32    26   ar
    34    18    20    1
    35    18    21    1
    36    24    25    1
