@<TRIPOS>MOLECULE
*****
 34 38 0 0 0
SMALL
GASTEIGER

@<TRIPOS>ATOM
      1 C         142.3223  143.1809  161.7310 C.ar    1  UNL1        0.1458
      2 N         142.7300  143.6631  160.3703 N.ar    1  UNL1       -0.2249
      3 C         141.7785  144.4813  159.5484 C.ar    1  UNL1        0.1260
      4 C         141.9000  145.0915  158.1836 C.ar    1  UNL1        0.1212
      5 N         140.6160  145.8045  157.8788 N.ar    1  UNL1       -0.2265
      6 N         139.7010  145.6350  159.0553 N.ar    1  UNL1       -0.1586
      7 C         140.4195  144.8171  160.0872 C.ar    1  UNL1        0.1762
      8 C         140.0119  144.3349  161.4478 C.ar    1  UNL1        0.2829
      9 O         138.6529  144.6708  161.9865 O.2     1  UNL1       -0.2652
     10 N         140.9633  143.5168  162.2696 N.ar    1  UNL1       -0.2793
     11 C         144.0302  144.5063  163.8108 C.3     1  UNL1        0.0311
     12 C         144.1277  143.0254  163.5928 C.ar    1  UNL1       -0.0189
     13 C         145.0791  142.2073  164.4147 C.ar    1  UNL1       -0.0042
     14 C         145.1765  140.7264  164.1966 C.ar    1  UNL1       -0.0003
     15 C         144.3225  140.0637  163.1567 C.ar    1  UNL1        0.0001
     16 C         143.3711  140.8818  162.3348 C.ar    1  UNL1        0.0027
     17 C         143.2737  142.3627  162.5529 C.ar    1  UNL1        0.0303
     18 C         140.3020  146.5553  156.6187 C.ar    1  UNL1        0.0831
     19 C         141.0185  146.2162  155.3453 C.ar    1  UNL1        0.0215
     20 C         140.7044  146.9670  154.0853 C.ar    1  UNL1        0.0312
     21 C         139.6740  148.0570  154.0986 C.ar    1  UNL1        0.1402
     22 F         139.3600  148.8078  152.8386 F       1  UNL1       -0.2042
     23 C         138.9575  148.3961  155.3721 C.ar    1  UNL1        0.0312
     24 C         139.2716  147.6453  156.6321 C.ar    1  UNL1        0.0215
     25 C         140.5556  143.0345  163.6303 C.3     1  UNL1        0.1119
     26 C         139.8925  141.6980  163.7848 C.3     1  UNL1        0.0388
     27 C         139.5248  140.8983  162.5701 C.3     1  UNL1        0.0048
     28 C         138.8617  139.5618  162.7246 C.3     1  UNL1        0.0174
     29 C         138.5663  139.0248  164.0938 C.3     1  UNL1        0.0720
     30 N         138.9341  139.8245  165.3084 N.3     1  UNL1       -0.2739
     31 C         139.5972  141.1611  165.1539 C.3     1  UNL1        0.0739
     32 C         138.6387  139.2875  166.6775 C.3     1  UNL1        0.0576
     33 C         139.3058  139.8886  167.8789 C.3     1  UNL1        0.0173
     34 C         137.6760  138.1493  166.8451 C.3     1  UNL1        0.0173
@<TRIPOS>BOND
     1    11    12    1
     2    12    13   ar
     3    13    14   ar
     4    14    15   ar
     5    15    16   ar
     6    16    17   ar
     7    17     1    1
     8     1     2   ar
     9     2     3   ar
    10     3     4   ar
    11     4     5   ar
    12     5    18    1
    13    18    19   ar
    14    19    20   ar
    15    20    21   ar
    16    21    22    1
    17    21    23   ar
    18    23    24   ar
    19     5     6   ar
    20     6     7   ar
    21     7     8   ar
    22     8     9    2
    23     8    10   ar
    24    10    25    1
    25    25    26    1
    26    26    27    1
    27    27    28    1
    28    28    29    1
    29    29    30    1
    30    30    32    1
    31    32    33    1
    32    32    34    1
    33    30    31    1
    34    17    12   ar
    35    10     1   ar
    36    31    26    1
    37     7     3   ar
    38    24    18   ar
@<TRIPOS>MOLECULE
*****
 34 38 0 0 0
SMALL
GASTEIGER

@<TRIPOS>ATOM
      1 C         141.3075  143.2759  162.4905 C.ar    1  UNL1        0.1458
      2 N         141.6148  142.9628  161.0560 N.ar    1  UNL1       -0.2249
      3 C         140.4984  142.8117  160.0656 C.ar    1  UNL1        0.1260
      4 C         140.4940  142.5068  158.5970 C.ar    1  UNL1        0.1212
      5 N         139.0677  142.4802  158.1334 N.ar    1  UNL1       -0.2265
      6 N         138.1906  142.7687  159.3155 N.ar    1  UNL1       -0.1586
      7 C         139.0748  142.9735  160.5097 C.ar    1  UNL1        0.1762
      8 C         138.7676  143.2866  161.9442 C.ar    1  UNL1        0.2829
      9 O         137.3440  143.4484  162.3883 O.2     1  UNL1       -0.2652
     10 N         139.8840  143.4377  162.9345 N.ar    1  UNL1       -0.2793
     11 C         142.4677  140.8521  163.8244 C.3     1  UNL1        0.0311
     12 C         143.0041  142.2152  164.1479 C.ar    1  UNL1       -0.0189
     13 C         144.1204  142.3663  165.1382 C.ar    1  UNL1       -0.0042
     14 C         144.6567  143.7294  165.4616 C.ar    1  UNL1       -0.0003
     15 C         144.0766  144.9412  164.7947 C.ar    1  UNL1        0.0001
     16 C         142.9602  144.7900  163.8043 C.ar    1  UNL1        0.0027
     17 C         142.4240  143.4270  163.4809 C.ar    1  UNL1        0.0303
     18 C         138.6005  142.2122  156.7334 C.ar    1  UNL1        0.0831
     19 C         137.3090  142.8008  156.2482 C.ar    1  UNL1        0.0215
     20 C         136.8418  142.5327  154.8481 C.ar    1  UNL1        0.0312
     21 C         137.6662  141.6762  153.9334 C.ar    1  UNL1        0.1402
     22 F         137.1990  141.4082  152.5334 F       1  UNL1       -0.2042
     23 C         138.9578  141.0877  154.4186 C.ar    1  UNL1        0.0312
     24 C         139.4249  141.3557  155.8186 C.ar    1  UNL1        0.0215
     25 C         139.5767  143.7507  164.3690 C.3     1  UNL1        0.1119
     26 C         139.6896  142.6782  165.4115 C.3     1  UNL1        0.0388
     27 C         140.4436  142.9426  166.6810 C.3     1  UNL1        0.0048
     28 C         140.5565  141.8701  167.7235 C.3     1  UNL1        0.0174
     29 C         139.9153  140.5331  167.4966 C.3     1  UNL1        0.0720
     30 N         139.1612  140.2687  166.2271 N.3     1  UNL1       -0.2739
     31 C         139.0484  141.3413  165.1846 C.3     1  UNL1        0.0739
     32 C         138.5201  138.9317  166.0002 C.3     1  UNL1        0.0576
     33 C         138.8368  138.1488  164.7607 C.3     1  UNL1        0.0173
     34 C         137.5622  138.3778  167.0131 C.3     1  UNL1        0.0173
@<TRIPOS>BOND
     1    11    12    1
     2    12    13   ar
     3    13    14   ar
     4    14    15   ar
     5    15    16   ar
     6    16    17   ar
     7    17     1    1
     8     1     2   ar
     9     2     3   ar
    10     3     4   ar
    11     4     5   ar
    12     5    18    1
    13    18    19   ar
    14    19    20   ar
    15    20    21   ar
    16    21    22    1
    17    21    23   ar
    18    23    24   ar
    19     5     6   ar
    20     6     7   ar
    21     7     8   ar
    22     8     9    2
    23     8    10   ar
    24    10    25    1
    25    25    26    1
    26    26    27    1
    27    27    28    1
    28    28    29    1
    29    29    30    1
    30    30    32    1
    31    32    33    1
    32    32    34    1
    33    30    31    1
    34    17    12   ar
    35    10     1   ar
    36    31    26    1
    37     7     3   ar
    38    24    18   ar
@<TRIPOS>MOLECULE
*****
 34 38 0 0 0
SMALL
GASTEIGER

@<TRIPOS>ATOM
      1 C         141.7914  141.7973  162.0599 C.ar    1  UNL1        0.1458
      2 N         141.5388  141.3602  160.6473 N.ar    1  UNL1       -0.2249
      3 C         140.2865  141.7896  159.9420 C.ar    1  UNL1        0.1260
      4 C         139.7691  141.5176  158.5606 C.ar    1  UNL1        0.1212
      5 N         138.4496  142.2159  158.4141 N.ar    1  UNL1       -0.2265
      6 N         138.1516  142.9195  159.7050 N.ar    1  UNL1       -0.1586
      7 C         139.2869  142.6560  160.6493 C.ar    1  UNL1        0.1762
      8 C         139.5396  143.0930  162.0618 C.ar    1  UNL1        0.2829
      9 O         138.5400  143.9593  162.7690 O.2     1  UNL1       -0.2652
     10 N         140.7919  142.6636  162.7670 N.ar    1  UNL1       -0.2793
     11 C         144.1905  143.5983  162.0867 C.3     1  UNL1        0.0311
     12 C         144.2433  142.2684  162.7786 C.ar    1  UNL1       -0.0189
     13 C         145.4956  141.8391  163.4839 C.ar    1  UNL1       -0.0042
     14 C         145.5483  140.5092  164.1757 C.ar    1  UNL1       -0.0003
     15 C         144.3488  139.6087  164.1623 C.ar    1  UNL1        0.0001
     16 C         143.0965  140.0380  163.4570 C.ar    1  UNL1        0.0027
     17 C         143.0438  141.3679  162.7652 C.ar    1  UNL1        0.0303
     18 C         137.5807  142.2115  157.1914 C.ar    1  UNL1        0.0831
     19 C         137.6340  143.3611  156.2293 C.ar    1  UNL1        0.0215
     20 C         136.7650  143.3566  155.0066 C.ar    1  UNL1        0.0312
     21 C         135.8428  142.2026  154.7460 C.ar    1  UNL1        0.1402
     22 F         134.9739  142.1982  153.5234 F       1  UNL1       -0.2042
     23 C         135.7896  141.0531  155.7082 C.ar    1  UNL1        0.0312
     24 C         136.6585  141.0576  156.9309 C.ar    1  UNL1        0.0215
     25 C         141.0445  143.1007  164.1796 C.3     1  UNL1        0.1119
     26 C         140.6481  142.2128  165.3217 C.3     1  UNL1        0.0388
     27 C         141.0565  142.5642  166.7217 C.3     1  UNL1        0.0048
     28 C         140.6601  141.6763  167.8637 C.3     1  UNL1        0.0174
     29 C         139.8553  140.4369  167.6059 C.3     1  UNL1        0.0720
     30 N         139.4469  140.0855  166.2060 N.3     1  UNL1       -0.2739
     31 C         139.8433  140.9735  165.0639 C.3     1  UNL1        0.0739
     32 C         138.6421  138.8462  165.9483 C.3     1  UNL1        0.0576
     33 C         138.8661  138.0537  164.6947 C.3     1  UNL1        0.0173
     34 C         137.6132  138.3995  166.9443 C.3     1  UNL1        0.0173
@<TRIPOS>BOND
     1    11    12    1
     2    12    13   ar
     3    13    14   ar
     4    14    15   ar
     5    15    16   ar
     6    16    17   ar
     7    17     1    1
     8     1     2   ar
     9     2     3   ar
    10     3     4   ar
    11     4     5   ar
    12     5    18    1
    13    18    19   ar
    14    19    20   ar
    15    20    21   ar
    16    21    22    1
    17    21    23   ar
    18    23    24   ar
    19     5     6   ar
    20     6     7   ar
    21     7     8   ar
    22     8     9    2
    23     8    10   ar
    24    10    25    1
    25    25    26    1
    26    26    27    1
    27    27    28    1
    28    28    29    1
    29    29    30    1
    30    30    32    1
    31    32    33    1
    32    32    34    1
    33    30    31    1
    34    17    12   ar
    35    10     1   ar
    36    31    26    1
    37     7     3   ar
    38    24    18   ar
@<TRIPOS>MOLECULE
*****
 34 38 0 0 0
SMALL
GASTEIGER

@<TRIPOS>ATOM
      1 C         140.6576  142.2344  161.8241 C.ar    1  UNL1        0.1458
      2 N         141.6927  142.9934  161.0478 N.ar    1  UNL1       -0.2249
      3 C         142.5452  142.2817  160.0396 C.ar    1  UNL1        0.1260
      4 C         143.6381  142.7622  159.1314 C.ar    1  UNL1        0.1212
      5 N         144.1310  141.5884  158.3381 N.ar    1  UNL1       -0.2265
      6 N         143.3428  140.3825  158.7560 N.ar    1  UNL1       -0.1586
      7 C         142.3628  140.8110  159.8076 C.ar    1  UNL1        0.1762
      8 C         141.3277  140.0521  160.5839 C.ar    1  UNL1        0.2829
      9 O         141.1452  138.5814  160.3520 O.2     1  UNL1       -0.2652
     10 N         140.4752  140.7638  161.5922 N.ar    1  UNL1       -0.2793
     11 C         141.7931  142.9579  164.5050 C.3     1  UNL1        0.0311
     12 C         140.3727  143.3079  164.1729 C.ar    1  UNL1       -0.0189
     13 C         139.5202  144.0196  165.1812 C.ar    1  UNL1       -0.0042
     14 C         138.0999  144.3695  164.8490 C.ar    1  UNL1       -0.0003
     15 C         137.5322  144.0077  163.5085 C.ar    1  UNL1        0.0001
     16 C         138.3847  143.2960  162.5003 C.ar    1  UNL1        0.0027
     17 C         139.8050  142.9461  162.8325 C.ar    1  UNL1        0.0303
     18 C         145.2208  141.6157  157.3078 C.ar    1  UNL1        0.0831
     19 C         145.1198  140.7512  156.0861 C.ar    1  UNL1        0.0215
     20 C         146.2097  140.7785  155.0558 C.ar    1  UNL1        0.0312
     21 C         147.4005  141.6703  155.2471 C.ar    1  UNL1        0.1402
     22 F         148.4903  141.6976  154.2168 F       1  UNL1       -0.2042
     23 C         147.5015  142.5348  156.4688 C.ar    1  UNL1        0.0312
     24 C         146.4117  142.5075  157.4991 C.ar    1  UNL1        0.0215
     25 C         139.4401  140.0047  162.3685 C.3     1  UNL1        0.1119
     26 C         139.5604  139.8824  163.8586 C.3     1  UNL1        0.0388
     27 C         138.3522  140.0732  164.7268 C.3     1  UNL1        0.0048
     28 C         138.4725  139.9508  166.2169 C.3     1  UNL1        0.0174
     29 C         139.8012  139.6378  166.8389 C.3     1  UNL1        0.0720
     30 N         141.0094  139.4470  165.9707 N.3     1  UNL1       -0.2739
     31 C         140.8890  139.5694  164.4806 C.3     1  UNL1        0.0739
     32 C         142.3380  139.1340  166.5927 C.3     1  UNL1        0.0576
     33 C         143.4026  138.4532  165.7847 C.3     1  UNL1        0.0173
     34 C         142.6018  139.5017  168.0229 C.3     1  UNL1        0.0173
@<TRIPOS>BOND
     1    11    12    1
     2    12    13   ar
     3    13    14   ar
     4    14    15   ar
     5    15    16   ar
     6    16    17   ar
     7    17     1    1
     8     1     2   ar
     9     2     3   ar
    10     3     4   ar
    11     4     5   ar
    12     5    18    1
    13    18    19   ar
    14    19    20   ar
    15    20    21   ar
    16    21    22    1
    17    21    23   ar
    18    23    24   ar
    19     5     6   ar
    20     6     7   ar
    21     7     8   ar
    22     8     9    2
    23     8    10   ar
    24    10    25    1
    25    25    26    1
    26    26    27    1
    27    27    28    1
    28    28    29    1
    29    29    30    1
    30    30    32    1
    31    32    33    1
    32    32    34    1
    33    30    31    1
    34    17    12   ar
    35    10     1   ar
    36    31    26    1
    37     7     3   ar
    38    24    18   ar
@<TRIPOS>MOLECULE
*****
 34 38 0 0 0
SMALL
GASTEIGER

@<TRIPOS>ATOM
      1 C         141.0585  142.2319  162.0249 C.ar    1  UNL1        0.1458
      2 N         141.7877  142.9877  160.9537 N.ar    1  UNL1       -0.2249
      3 C         142.7330  142.2672  160.0387 C.ar    1  UNL1        0.1260
      4 C         143.5857  142.7428  158.8999 C.ar    1  UNL1        0.1212
      5 N         144.3289  141.5605  158.3522 N.ar    1  UNL1       -0.2265
      6 N         143.9356  140.3544  159.1526 N.ar    1  UNL1       -0.1586
      7 C         142.9493  140.7911  160.1949 C.ar    1  UNL1        0.1762
      8 C         142.2202  140.0355  161.2660 C.ar    1  UNL1        0.2829
      9 O         142.4364  138.5594  161.4222 O.2     1  UNL1       -0.2652
     10 N         141.2748  140.7559  162.1810 N.ar    1  UNL1       -0.2793
     11 C         142.0978  143.5844  164.4928 C.3     1  UNL1        0.0311
     12 C         140.6327  143.6286  164.1739 C.ar    1  UNL1       -0.0189
     13 C         139.6873  144.3491  165.0889 C.ar    1  UNL1       -0.0042
     14 C         138.2223  144.3932  164.7699 C.ar    1  UNL1       -0.0003
     15 C         137.7027  143.7170  163.5359 C.ar    1  UNL1        0.0001
     16 C         138.6481  142.9966  162.6209 C.ar    1  UNL1        0.0027
     17 C         140.1131  142.9524  162.9399 C.ar    1  UNL1        0.0303
     18 C         145.2956  141.5808  157.2055 C.ar    1  UNL1        0.0831
     19 C         146.4649  142.5201  157.2269 C.ar    1  UNL1        0.0215
     20 C         147.4317  142.5404  156.0802 C.ar    1  UNL1        0.0312
     21 C         147.2292  141.6214  154.9121 C.ar    1  UNL1        0.1402
     22 F         148.1960  141.6418  153.7654 F       1  UNL1       -0.2042
     23 C         146.0599  140.6821  154.8907 C.ar    1  UNL1        0.0312
     24 C         145.0932  140.6619  156.0374 C.ar    1  UNL1        0.0215
     25 C         140.5457  140.0002  163.2522 C.3     1  UNL1        0.1119
     26 C         141.1241  139.9109  164.6332 C.3     1  UNL1        0.0388
     27 C         142.3966  139.1514  164.8658 C.3     1  UNL1        0.0048
     28 C         142.9750  139.0621  166.2468 C.3     1  UNL1        0.0174
     29 C         142.2809  139.7323  167.3954 C.3     1  UNL1        0.0720
     30 N         141.0085  140.4918  167.1629 N.3     1  UNL1       -0.2739
     31 C         140.4301  140.5810  165.7818 C.3     1  UNL1        0.0739
     32 C         140.3145  141.1619  168.3115 C.3     1  UNL1        0.0576
     33 C         139.4284  140.3639  169.2212 C.3     1  UNL1        0.0173
     34 C         140.5068  142.6303  168.5503 C.3     1  UNL1        0.0173
@<TRIPOS>BOND
     1    11    12    1
     2    12    13   ar
     3    13    14   ar
     4    14    15   ar
     5    15    16   ar
     6    16    17   ar
     7    17     1    1
     8     1     2   ar
     9     2     3   ar
    10     3     4   ar
    11     4     5   ar
    12     5    18    1
    13    18    19   ar
    14    19    20   ar
    15    20    21   ar
    16    21    22    1
    17    21    23   ar
    18    23    24   ar
    19     5     6   ar
    20     6     7   ar
    21     7     8   ar
    22     8     9    2
    23     8    10   ar
    24    10    25    1
    25    25    26    1
    26    26    27    1
    27    27    28    1
    28    28    29    1
    29    29    30    1
    30    30    32    1
    31    32    33    1
    32    32    34    1
    33    30    31    1
    34    17    12   ar
    35    10     1   ar
    36    31    26    1
    37     7     3   ar
    38    24    18   ar
@<TRIPOS>MOLECULE
*****
 34 38 0 0 0
SMALL
GASTEIGER

@<TRIPOS>ATOM
      1 C         140.4548  141.2451  162.3592 C.ar    1  UNL1        0.1458
      2 N         140.2267  141.1381  160.8805 N.ar    1  UNL1       -0.2249
      3 C         140.8045  139.9854  160.1141 C.ar    1  UNL1        0.1260
      4 C         140.7476  139.6168  158.6612 C.ar    1  UNL1        0.1212
      5 N         141.5182  138.3434  158.4755 N.ar    1  UNL1       -0.2265
      6 N         142.0515  137.9250  159.8137 N.ar    1  UNL1       -0.1586
      7 C         141.6104  138.9398  160.8263 C.ar    1  UNL1        0.1762
      8 C         141.8384  139.0469  162.3050 C.ar    1  UNL1        0.2829
      9 O         142.6443  138.0013  163.0173 O.2     1  UNL1       -0.2652
     10 N         141.2606  140.1996  163.0714 N.ar    1  UNL1       -0.2793
     11 C         137.5549  141.2324  163.1276 C.3     1  UNL1        0.0311
     12 C         138.4270  142.3915  163.5099 C.ar    1  UNL1       -0.0189
     13 C         137.8492  143.5442  164.2763 C.ar    1  UNL1       -0.0042
     14 C         138.7213  144.7033  164.6585 C.ar    1  UNL1       -0.0003
     15 C         140.1712  144.7096  164.2743 C.ar    1  UNL1        0.0001
     16 C         140.7490  143.5569  163.5079 C.ar    1  UNL1        0.0027
     17 C         139.8769  142.3979  163.1257 C.ar    1  UNL1        0.0303
     18 C         141.7202  137.6160  157.1793 C.ar    1  UNL1        0.0831
     19 C         140.5347  137.2044  156.3577 C.ar    1  UNL1        0.0215
     20 C         140.7368  136.4770  155.0614 C.ar    1  UNL1        0.0312
     21 C         142.1242  136.1613  154.5869 C.ar    1  UNL1        0.1402
     22 F         142.3262  135.4339  153.2906 F       1  UNL1       -0.2042
     23 C         143.3097  136.5729  155.4085 C.ar    1  UNL1        0.0312
     24 C         143.1077  137.3003  156.7048 C.ar    1  UNL1        0.0215
     25 C         141.4887  140.3066  164.5502 C.3     1  UNL1        0.1119
     26 C         140.4145  139.8828  165.5074 C.3     1  UNL1        0.0388
     27 C         139.3353  138.9437  165.0558 C.3     1  UNL1        0.0048
     28 C         138.2611  138.5199  166.0130 C.3     1  UNL1        0.0174
     29 C         138.2659  139.0350  167.4219 C.3     1  UNL1        0.0720
     30 N         139.3450  139.9740  167.8734 N.3     1  UNL1       -0.2739
     31 C         140.4193  140.3978  166.9161 C.3     1  UNL1        0.0739
     32 C         139.3498  140.4891  169.2822 C.3     1  UNL1        0.0576
     33 C         140.4390  141.4135  169.7390 C.3     1  UNL1        0.0173
     34 C         138.2652  140.0795  170.2341 C.3     1  UNL1        0.0173
@<TRIPOS>BOND
     1    11    12    1
     2    12    13   ar
     3    13    14   ar
     4    14    15   ar
     5    15    16   ar
     6    16    17   ar
     7    17     1    1
     8     1     2   ar
     9     2     3   ar
    10     3     4   ar
    11     4     5   ar
    12     5    18    1
    13    18    19   ar
    14    19    20   ar
    15    20    21   ar
    16    21    22    1
    17    21    23   ar
    18    23    24   ar
    19     5     6   ar
    20     6     7   ar
    21     7     8   ar
    22     8     9    2
    23     8    10   ar
    24    10    25    1
    25    25    26    1
    26    26    27    1
    27    27    28    1
    28    28    29    1
    29    29    30    1
    30    30    32    1
    31    32    33    1
    32    32    34    1
    33    30    31    1
    34    17    12   ar
    35    10     1   ar
    36    31    26    1
    37     7     3   ar
    38    24    18   ar
@<TRIPOS>MOLECULE
*****
 34 38 0 0 0
SMALL
GASTEIGER

@<TRIPOS>ATOM
      1 C         141.6900  143.0957  162.6700 C.ar    1  UNL1        0.1458
      2 N         141.6910  142.9925  161.1735 N.ar    1  UNL1       -0.2249
      3 C         142.9711  142.7167  160.4418 C.ar    1  UNL1        0.1260
      4 C         143.2793  142.5619  158.9820 C.ar    1  UNL1        0.1212
      5 N         144.7487  142.2937  158.8445 N.ar    1  UNL1       -0.2265
      6 N         145.3486  142.2828  160.2193 N.ar    1  UNL1       -0.1586
      7 C         144.2500  142.5442  161.2065 C.ar    1  UNL1        0.1762
      8 C         144.2488  142.6475  162.7029 C.ar    1  UNL1        0.2829
      9 O         145.5277  142.4750  163.4676 O.2     1  UNL1       -0.2652
     10 N         142.9688  142.9233  163.4347 N.ar    1  UNL1       -0.2793
     11 C         139.6271  140.9356  162.9504 C.3     1  UNL1        0.0311
     12 C         139.3784  142.2914  163.5420 C.ar    1  UNL1       -0.0189
     13 C         138.0984  142.5672  164.2737 C.ar    1  UNL1       -0.0042
     14 C         137.8498  143.9230  164.8653 C.ar    1  UNL1       -0.0003
     15 C         138.8812  145.0031  164.7252 C.ar    1  UNL1        0.0001
     16 C         140.1612  144.7273  163.9934 C.ar    1  UNL1        0.0027
     17 C         140.4098  143.3715  163.4018 C.ar    1  UNL1        0.0303
     18 C         145.4885  142.0749  157.5581 C.ar    1  UNL1        0.0831
     19 C         146.7880  142.7820  157.3105 C.ar    1  UNL1        0.0215
     20 C         147.5276  142.5631  156.0240 C.ar    1  UNL1        0.0312
     21 C         146.9678  141.6372  154.9851 C.ar    1  UNL1        0.1402
     22 F         147.7076  141.4183  153.6987 F       1  UNL1       -0.2042
     23 C         145.6684  140.9300  155.2327 C.ar    1  UNL1        0.0312
     24 C         144.9287  141.1489  156.5192 C.ar    1  UNL1        0.0215
     25 C         142.9677  143.0265  164.9312 C.3     1  UNL1        0.1119
     26 C         142.3340  141.9466  165.7570 C.3     1  UNL1        0.0388
     27 C         142.4735  140.5102  165.3480 C.3     1  UNL1        0.0048
     28 C         141.8398  139.4303  166.1739 C.3     1  UNL1        0.0174
     29 C         141.0665  139.7867  167.4088 C.3     1  UNL1        0.0720
     30 N         140.9269  141.2231  167.8178 N.3     1  UNL1       -0.2739
     31 C         141.5607  142.3030  166.9919 C.3     1  UNL1        0.0739
     32 C         140.1536  141.5795  169.0527 C.3     1  UNL1        0.0576
     33 C         139.2736  140.5567  169.7078 C.3     1  UNL1        0.0173
     34 C         140.2604  142.9589  169.6324 C.3     1  UNL1        0.0173
@<TRIPOS>BOND
     1    11    12    1
     2    12    13   ar
     3    13    14   ar
     4    14    15   ar
     5    15    16   ar
     6    16    17   ar
     7    17     1    1
     8     1     2   ar
     9     2     3   ar
    10     3     4   ar
    11     4     5   ar
    12     5    18    1
    13    18    19   ar
    14    19    20   ar
    15    20    21   ar
    16    21    22    1
    17    21    23   ar
    18    23    24   ar
    19     5     6   ar
    20     6     7   ar
    21     7     8   ar
    22     8     9    2
    23     8    10   ar
    24    10    25    1
    25    25    26    1
    26    26    27    1
    27    27    28    1
    28    28    29    1
    29    29    30    1
    30    30    32    1
    31    32    33    1
    32    32    34    1
    33    30    31    1
    34    17    12   ar
    35    10     1   ar
    36    31    26    1
    37     7     3   ar
    38    24    18   ar
@<TRIPOS>MOLECULE
*****
 34 38 0 0 0
SMALL
GASTEIGER

@<TRIPOS>ATOM
      1 C         142.3508  141.7509  161.7731 C.ar    1  UNL1        0.1458
      2 N         143.1988  140.9975  160.7916 N.ar    1  UNL1       -0.2249
      3 C         142.5570  140.0699  159.8029 C.ar    1  UNL1        0.1260
      4 C         143.1306  139.2007  158.7234 C.ar    1  UNL1        0.1212
      5 N         141.9952  138.4893  158.0489 N.ar    1  UNL1       -0.2265
      6 N         140.7199  138.9188  158.7117 N.ar    1  UNL1       -0.1586
      7 C         141.0671  139.8957  159.7957 C.ar    1  UNL1        0.1762
      8 C         140.2191  140.6491  160.7772 C.ar    1  UNL1        0.2829
      9 O         138.7293  140.4749  160.7700 O.2     1  UNL1       -0.2652
     10 N         140.8610  141.5767  161.7659 N.ar    1  UNL1       -0.2793
     11 C         143.4681  140.6691  164.3385 C.3     1  UNL1        0.0311
     12 C         143.5513  142.1377  164.0446 C.ar    1  UNL1       -0.0189
     13 C         144.1932  143.0653  165.0332 C.ar    1  UNL1       -0.0042
     14 C         144.2764  144.5339  164.7392 C.ar    1  UNL1       -0.0003
     15 C         143.7177  145.0748  163.4565 C.ar    1  UNL1        0.0001
     16 C         143.0759  144.1471  162.4679 C.ar    1  UNL1        0.0027
     17 C         142.9927  142.6786  162.7619 C.ar    1  UNL1        0.0303
     18 C         142.1142  137.5187  156.9115 C.ar    1  UNL1        0.0831
     19 C         140.8839  136.8785  156.3400 C.ar    1  UNL1        0.0215
     20 C         141.0030  135.9080  155.2025 C.ar    1  UNL1        0.0312
     21 C         142.3523  135.5776  154.6364 C.ar    1  UNL1        0.1402
     22 F         142.4712  134.6071  153.4990 F       1  UNL1       -0.2042
     23 C         143.5825  136.2178  155.2079 C.ar    1  UNL1        0.0312
     24 C         143.4634  137.1884  156.3454 C.ar    1  UNL1        0.0215
     25 C         140.0130  142.3301  162.7474 C.3     1  UNL1        0.1119
     26 C         139.8698  141.8297  164.1541 C.3     1  UNL1        0.0388
     27 C         140.3366  142.6750  165.3020 C.3     1  UNL1        0.0048
     28 C         140.1935  142.1746  166.7088 C.3     1  UNL1        0.0174
     29 C         139.5836  140.8288  166.9677 C.3     1  UNL1        0.0720
     30 N         139.1168  139.9835  165.8199 N.3     1  UNL1       -0.2739
     31 C         139.2600  140.4840  164.4131 C.3     1  UNL1        0.0739
     32 C         138.5070  138.6378  166.0789 C.3     1  UNL1        0.0576
     33 C         138.8361  137.4804  165.1835 C.3     1  UNL1        0.0173
     34 C         137.5679  138.4496  167.2334 C.3     1  UNL1        0.0173
@<TRIPOS>BOND
     1    11    12    1
     2    12    13   ar
     3    13    14   ar
     4    14    15   ar
     5    15    16   ar
     6    16    17   ar
     7    17     1    1
     8     1     2   ar
     9     2     3   ar
    10     3     4   ar
    11     4     5   ar
    12     5    18    1
    13    18    19   ar
    14    19    20   ar
    15    20    21   ar
    16    21    22    1
    17    21    23   ar
    18    23    24   ar
    19     5     6   ar
    20     6     7   ar
    21     7     8   ar
    22     8     9    2
    23     8    10   ar
    24    10    25    1
    25    25    26    1
    26    26    27    1
    27    27    28    1
    28    28    29    1
    29    29    30    1
    30    30    32    1
    31    32    33    1
    32    32    34    1
    33    30    31    1
    34    17    12   ar
    35    10     1   ar
    36    31    26    1
    37     7     3   ar
    38    24    18   ar
@<TRIPOS>MOLECULE
*****
 34 38 0 0 0
SMALL
GASTEIGER

@<TRIPOS>ATOM
      1 C         141.6617  140.4825  161.8695 C.ar    1  UNL1        0.1458
      2 N         142.3564  139.8141  160.7202 N.ar    1  UNL1       -0.2249
      3 C         143.1891  140.6257  159.7727 C.ar    1  UNL1        0.1260
      4 C         143.9852  140.2471  158.5591 C.ar    1  UNL1        0.1212
      5 N         144.6152  141.4930  158.0108 N.ar    1  UNL1       -0.2265
      6 N         144.2085  142.6417  158.8855 N.ar    1  UNL1       -0.1586
      7 C         143.3271  142.1057  159.9745 C.ar    1  UNL1        0.1762
      8 C         142.6324  142.7740  161.1237 C.ar    1  UNL1        0.2829
      9 O         142.7704  144.2540  161.3254 O.2     1  UNL1       -0.2652
     10 N         141.7997  141.9623  162.0712 N.ar    1  UNL1       -0.2793
     11 C         142.9649  139.0422  164.1558 C.3     1  UNL1        0.0311
     12 C         141.4805  138.9506  163.9602 C.ar    1  UNL1       -0.0189
     13 C         140.6477  138.1390  164.9076 C.ar    1  UNL1       -0.0042
     14 C         139.1633  138.0475  164.7120 C.ar    1  UNL1       -0.0003
     15 C         138.5117  138.7677  163.5688 C.ar    1  UNL1        0.0001
     16 C         139.3445  139.5793  162.6213 C.ar    1  UNL1        0.0027
     17 C         140.8288  139.6708  162.8170 C.ar    1  UNL1        0.0303
     18 C         145.4971  141.5758  156.8003 C.ar    1  UNL1        0.0831
     19 C         145.1465  140.8042  155.5627 C.ar    1  UNL1        0.0215
     20 C         146.0284  140.8870  154.3522 C.ar    1  UNL1        0.0312
     21 C         147.2610  141.7414  154.3792 C.ar    1  UNL1        0.1402
     22 F         148.1429  141.8242  153.1686 F       1  UNL1       -0.2042
     23 C         147.6117  142.5130  155.6168 C.ar    1  UNL1        0.0312
     24 C         146.7297  142.4302  156.8273 C.ar    1  UNL1        0.0215
     25 C         141.1049  142.6307  163.2204 C.3     1  UNL1        0.1119
     26 C         141.6378  142.4725  164.6135 C.3     1  UNL1        0.0388
     27 C         143.0845  142.7475  164.8990 C.3     1  UNL1        0.0048
     28 C         143.6174  142.5892  166.2921 C.3     1  UNL1        0.0174
     29 C         142.7035  142.1559  167.4000 C.3     1  UNL1        0.0720
     30 N         141.2569  141.8808  167.1146 N.3     1  UNL1       -0.2739
     31 C         140.7240  142.0391  165.7213 C.3     1  UNL1        0.0739
     32 C         140.3431  141.4475  168.2224 C.3     1  UNL1        0.0576
     33 C         139.6181  140.1379  168.1276 C.3     1  UNL1        0.0173
     34 C         140.1544  142.3239  169.4250 C.3     1  UNL1        0.0173
@<TRIPOS>BOND
     1    11    12    1
     2    12    13   ar
     3    13    14   ar
     4    14    15   ar
     5    15    16   ar
     6    16    17   ar
     7    17     1    1
     8     1     2   ar
     9     2     3   ar
    10     3     4   ar
    11     4     5   ar
    12     5    18    1
    13    18    19   ar
    14    19    20   ar
    15    20    21   ar
    16    21    22    1
    17    21    23   ar
    18    23    24   ar
    19     5     6   ar
    20     6     7   ar
    21     7     8   ar
    22     8     9    2
    23     8    10   ar
    24    10    25    1
    25    25    26    1
    26    26    27    1
    27    27    28    1
    28    28    29    1
    29    29    30    1
    30    30    32    1
    31    32    33    1
    32    32    34    1
    33    30    31    1
    34    17    12   ar
    35    10     1   ar
    36    31    26    1
    37     7     3   ar
    38    24    18   ar
