@<TRIPOS>MOLECULE
*****
 27 31 0 0 0
SMALL
GASTEIGER

@<TRIPOS>ATOM
      1 C         142.0768  140.9086  169.1505 C.2     1  UNL1        0.1222
      2 C         140.8991  141.8062  169.3900 C.2     1  UNL1        0.0328
      3 C         140.3469  142.6345  168.2679 C.2     1  UNL1        0.0037
      4 C         140.9724  142.5651  166.9063 C.2     1  UNL1        0.0114
      5 C         140.6487  143.2592  165.6165 C.2     1  UNL1       -0.0025
      6 C         141.6263  142.7905  164.5799 C.2     1  UNL1        0.0920
      7 N         142.5542  141.8068  165.2289 N.2     1  UNL1       -0.2505
      8 C         142.1500  141.6675  166.6668 C.2     1  UNL1        0.0660
      9 C         142.7022  140.8392  167.7889 C.3     1  UNL1        0.1095
     10 C         141.5453  143.3201  163.1788 C.3     1  UNL1        0.1939
     11 N         140.4866  144.3184  162.8144 N.am    1  UNL1       -0.2562
     12 C         139.5090  144.7871  163.8510 C.3     1  UNL1        0.1003
     13 C         139.5901  144.2575  165.2522 C.3     1  UNL1        0.0493
     14 C         140.4056  144.8480  161.4133 C.2     1  UNL1        0.2546
     15 O         139.3470  145.8462  161.0490 O.2     1  UNL1       -0.2697
     16 C         141.3832  144.3793  160.3767 C.ar    1  UNL1        0.1008
     17 C         141.3022  144.9089  158.9756 C.ar    1  UNL1        0.1442
     18 C         142.2798  144.4402  157.9390 C.ar    1  UNL1        0.0371
     19 C         143.3384  143.4420  158.3034 C.ar    1  UNL1        0.0044
     20 C         143.4194  142.9124  159.7045 C.ar    1  UNL1        0.0149
     21 C         142.4418  143.3811  160.7412 C.ar    1  UNL1        0.0566
     22 N         142.5229  142.8515  162.1422 N.pl3   1  UNL1       -0.2867
     23 C         143.5815  141.8532  162.5066 C.3     1  UNL1        0.1140
     24 C         142.6022  138.5833  170.1832 C.3     1  UNL1        0.2520
     25 O         142.6289  140.0803  170.2725 O.2     1  UNL1       -0.4753
     26 O         140.2436  145.9071  158.6112 O.3     1  UNL1       -0.4712
     27 C         140.0356  146.2896  157.1758 C.3     1  UNL1        0.2525
@<TRIPOS>BOND
     1    24    25    1
     2    25     1    1
     3     1     2    2
     4     2     3    1
     5     3     4    2
     6     4     5    1
     7     5     6    2
     8     6     7    1
     9     7     8    2
    10     8     9    1
    11     6    10    1
    12    10    11    1
    13    11    12    1
    14    12    13    1
    15    11    14   am
    16    14    15    2
    17    14    16    1
    18    16    17   ar
    19    17    26    1
    20    26    27    1
    21    17    18   ar
    22    18    19   ar
    23    19    20   ar
    24    20    21   ar
    25    21    22    1
    26    22    23    1
    27     9     1    1
    28    10    22    1
    29     8     4    1
    30    21    16   ar
    31    13     5    1
@<TRIPOS>MOLECULE
*****
 27 31 0 0 0
SMALL
GASTEIGER

@<TRIPOS>ATOM
      1 C         140.3780  141.5316  169.3827 C.2     1  UNL1        0.1222
      2 C         139.6475  140.2564  169.0824 C.2     1  UNL1        0.0328
      3 C         139.2249  139.9473  167.6767 C.2     1  UNL1        0.0037
      4 C         139.5328  140.9135  166.5714 C.2     1  UNL1        0.0114
      5 C         139.2442  140.8802  165.0998 C.2     1  UNL1       -0.0025
      6 C         139.7963  142.1349  164.4907 C.2     1  UNL1        0.0920
      7 N         140.4262  142.9436  165.5858 N.2     1  UNL1       -0.2505
      8 C         140.2633  142.1886  166.8718 C.2     1  UNL1        0.0660
      9 C         140.6859  142.4977  168.2774 C.3     1  UNL1        0.1095
     10 C         139.6541  142.3789  163.0175 C.3     1  UNL1        0.1939
     11 N         138.9598  141.3682  162.1534 N.am    1  UNL1       -0.2562
     12 C         138.4077  140.1135  162.7626 C.3     1  UNL1        0.1003
     13 C         138.5499  139.8696  164.2358 C.3     1  UNL1        0.0493
     14 C         138.8176  141.6122  160.6803 C.2     1  UNL1        0.2546
     15 O         138.1233  140.6016  159.8163 O.2     1  UNL1       -0.2697
     16 C         139.3697  142.8669  160.0711 C.ar    1  UNL1        0.1008
     17 C         139.2275  143.1109  158.5980 C.ar    1  UNL1        0.1442
     18 C         139.7796  144.3655  157.9888 C.ar    1  UNL1        0.0371
     19 C         140.4738  145.3761  158.8529 C.ar    1  UNL1        0.0044
     20 C         140.6160  145.1321  160.3261 C.ar    1  UNL1        0.0149
     21 C         140.0639  143.8775  160.9353 C.ar    1  UNL1        0.0566
     22 N         140.2061  143.6335  162.4084 N.pl3   1  UNL1       -0.2867
     23 C         140.9004  144.6441  163.2724 C.3     1  UNL1        0.1140
     24 C         142.2403  142.1324  171.0918 C.3     1  UNL1        0.2520
     25 O         140.8006  141.8406  170.7884 O.2     1  UNL1       -0.4753
     26 O         138.5332  142.1002  157.7340 O.3     1  UNL1       -0.4712
     27 C         137.3501  142.5072  156.9065 C.3     1  UNL1        0.2525
@<TRIPOS>BOND
     1    24    25    1
     2    25     1    1
     3     1     2    2
     4     2     3    1
     5     3     4    2
     6     4     5    1
     7     5     6    2
     8     6     7    1
     9     7     8    2
    10     8     9    1
    11     6    10    1
    12    10    11    1
    13    11    12    1
    14    12    13    1
    15    11    14   am
    16    14    15    2
    17    14    16    1
    18    16    17   ar
    19    17    26    1
    20    26    27    1
    21    17    18   ar
    22    18    19   ar
    23    19    20   ar
    24    20    21   ar
    25    21    22    1
    26    22    23    1
    27     9     1    1
    28    10    22    1
    29     8     4    1
    30    21    16   ar
    31    13     5    1
@<TRIPOS>MOLECULE
*****
 27 31 0 0 0
SMALL
GASTEIGER

@<TRIPOS>ATOM
      1 C         140.3820  139.8850  169.1370 C.2     1  UNL1        0.1222
      2 C         141.8758  139.7564  169.1829 C.2     1  UNL1        0.0328
      3 C         142.6544  139.5986  167.9105 C.2     1  UNL1        0.0037
      4 C         141.9392  139.5694  166.5923 C.2     1  UNL1        0.0114
      5 C         142.4356  139.4270  165.1841 C.2     1  UNL1       -0.0025
      6 C         141.2486  139.4676  164.2678 C.2     1  UNL1        0.0920
      7 N         140.0186  139.6351  165.1098 N.2     1  UNL1       -0.2505
      8 C         140.4455  139.6980  166.5465 C.2     1  UNL1        0.0660
      9 C         139.6669  139.8558  167.8189 C.3     1  UNL1        0.1095
     10 C         141.4412  139.3468  162.7852 C.3     1  UNL1        0.1939
     11 N         142.8208  139.1854  162.2187 N.am    1  UNL1       -0.2562
     12 C         144.0078  139.1447  163.1349 C.3     1  UNL1        0.1003
     13 C         143.8151  139.2656  164.6176 C.3     1  UNL1        0.0493
     14 C         143.0133  139.0646  160.7360 C.2     1  UNL1        0.2546
     15 O         144.3929  138.9031  160.1696 O.2     1  UNL1       -0.2697
     16 C         141.8264  139.1052  159.8198 C.ar    1  UNL1        0.1008
     17 C         142.0189  138.9844  158.3371 C.ar    1  UNL1        0.1442
     18 C         140.8320  139.0250  157.4209 C.ar    1  UNL1        0.0371
     19 C         139.4525  139.1864  157.9873 C.ar    1  UNL1        0.0044
     20 C         139.2599  139.3072  159.4701 C.ar    1  UNL1        0.0149
     21 C         140.4469  139.2666  160.3863 C.ar    1  UNL1        0.0566
     22 N         140.2543  139.3874  161.8690 N.pl3   1  UNL1       -0.2867
     23 C         138.8748  139.5488  162.4354 C.3     1  UNL1        0.1140
     24 C         138.1063  140.1255  170.3672 C.3     1  UNL1        0.2520
     25 O         139.6034  140.0428  170.4094 O.2     1  UNL1       -0.4753
     26 O         143.3985  138.8229  157.7707 O.3     1  UNL1       -0.4712
     27 C         143.8050  139.5995  156.5535 C.3     1  UNL1        0.2525
@<TRIPOS>BOND
     1    24    25    1
     2    25     1    1
     3     1     2    2
     4     2     3    1
     5     3     4    2
     6     4     5    1
     7     5     6    2
     8     6     7    1
     9     7     8    2
    10     8     9    1
    11     6    10    1
    12    10    11    1
    13    11    12    1
    14    12    13    1
    15    11    14   am
    16    14    15    2
    17    14    16    1
    18    16    17   ar
    19    17    26    1
    20    26    27    1
    21    17    18   ar
    22    18    19   ar
    23    19    20   ar
    24    20    21   ar
    25    21    22    1
    26    22    23    1
    27     9     1    1
    28    10    22    1
    29     8     4    1
    30    21    16   ar
    31    13     5    1
@<TRIPOS>MOLECULE
*****
 27 31 0 0 0
SMALL
GASTEIGER

@<TRIPOS>ATOM
      1 C         141.6794  135.4426  155.0864 C.2     1  UNL1        0.1222
      2 C         141.3356  136.6696  154.2950 C.2     1  UNL1        0.0328
      3 C         141.5378  138.0297  154.8943 C.2     1  UNL1        0.0037
      4 C         142.0838  138.1629  156.2850 C.2     1  UNL1        0.0114
      5 C         142.3884  139.3620  157.1332 C.2     1  UNL1       -0.0025
      6 C         142.9205  138.8761  158.4488 C.2     1  UNL1        0.0920
      7 N         142.9447  137.3767  158.4137 N.2     1  UNL1       -0.2505
      8 C         142.4276  136.9360  157.0764 C.2     1  UNL1        0.0660
      9 C         142.2254  135.5758  156.4771 C.3     1  UNL1        0.1095
     10 C         143.3141  139.8618  159.5087 C.3     1  UNL1        0.1939
     11 N         143.1757  141.3334  159.2530 N.am    1  UNL1       -0.2562
     12 C         142.6436  141.8193  157.9374 C.3     1  UNL1        0.1003
     13 C         142.2499  140.8335  156.8774 C.3     1  UNL1        0.0493
     14 C         143.5694  142.3191  160.3130 C.2     1  UNL1        0.2546
     15 O         143.4309  143.7906  160.0572 O.2     1  UNL1       -0.2697
     16 C         144.1014  141.8332  161.6286 C.ar    1  UNL1        0.1008
     17 C         144.4951  142.8189  162.6885 C.ar    1  UNL1        0.1442
     18 C         145.0272  142.3330  164.0041 C.ar    1  UNL1        0.0371
     19 C         145.1656  140.8615  164.2597 C.ar    1  UNL1        0.0044
     20 C         144.7719  139.8758  163.1998 C.ar    1  UNL1        0.0149
     21 C         144.2398  140.3616  161.8842 C.ar    1  UNL1        0.0566
     22 N         143.8462  139.3760  160.8242 N.pl3   1  UNL1       -0.2867
     23 C         143.9846  137.9044  161.0799 C.3     1  UNL1        0.1140
     24 C         141.4679  132.8686  155.3681 C.3     1  UNL1        0.2520
     25 O         141.4773  134.0825  154.4870 O.2     1  UNL1       -0.4753
     26 O         144.3567  144.2904  162.4328 O.3     1  UNL1       -0.4712
     27 C         143.6064  145.1530  163.4038 C.3     1  UNL1        0.2525
@<TRIPOS>BOND
     1    24    25    1
     2    25     1    1
     3     1     2    2
     4     2     3    1
     5     3     4    2
     6     4     5    1
     7     5     6    2
     8     6     7    1
     9     7     8    2
    10     8     9    1
    11     6    10    1
    12    10    11    1
    13    11    12    1
    14    12    13    1
    15    11    14   am
    16    14    15    2
    17    14    16    1
    18    16    17   ar
    19    17    26    1
    20    26    27    1
    21    17    18   ar
    22    18    19   ar
    23    19    20   ar
    24    20    21   ar
    25    21    22    1
    26    22    23    1
    27     9     1    1
    28    10    22    1
    29     8     4    1
    30    21    16   ar
    31    13     5    1
@<TRIPOS>MOLECULE
*****
 27 31 0 0 0
SMALL
GASTEIGER

@<TRIPOS>ATOM
      1 C         139.8383  140.6098  168.5917 C.2     1  UNL1        0.1222
      2 C         140.3735  142.0087  168.6728 C.2     1  UNL1        0.0328
      3 C         140.4757  142.8457  167.4323 C.2     1  UNL1        0.0037
      4 C         140.0427  142.2838  166.1106 C.2     1  UNL1        0.0114
      5 C         140.0264  142.8672  164.7288 C.2     1  UNL1       -0.0025
      6 C         139.4812  141.8288  163.7937 C.2     1  UNL1        0.0920
      7 N         139.1604  140.6037  164.5975 N.2     1  UNL1       -0.2505
      8 C         139.5075  140.8849  166.0295 C.2     1  UNL1        0.0660
      9 C         139.4053  140.0479  167.2701 C.3     1  UNL1        0.1095
     10 C         139.3472  142.1329  162.3310 C.3     1  UNL1        0.1939
     11 N         139.7584  143.4756  161.8033 N.am    1  UNL1       -0.2562
     12 C         140.3037  144.5140  162.7385 C.3     1  UNL1        0.1003
     13 C         140.4377  144.2097  164.2013 C.3     1  UNL1        0.0493
     14 C         139.6244  143.7798  160.3407 C.2     1  UNL1        0.2546
     15 O         140.0356  145.1224  159.8131 O.2     1  UNL1       -0.2697
     16 C         139.0791  142.7414  159.4055 C.ar    1  UNL1        0.1008
     17 C         138.9451  143.0456  157.9428 C.ar    1  UNL1        0.1442
     18 C         138.3999  142.0072  157.0077 C.ar    1  UNL1        0.0371
     19 C         137.9886  140.6647  157.5353 C.ar    1  UNL1        0.0044
     20 C         138.1226  140.3604  158.9981 C.ar    1  UNL1        0.0149
     21 C         138.6679  141.3988  159.9332 C.ar    1  UNL1        0.0566
     22 N         138.8019  141.0946  161.3959 N.pl3   1  UNL1       -0.2867
     23 C         138.3907  139.7520  161.9235 C.3     1  UNL1        0.1140
     24 C         140.4800  140.1743  171.0713 C.3     1  UNL1        0.2520
     25 O         139.7361  139.7728  169.8323 O.2     1  UNL1       -0.4753
     26 O         139.3564  144.3881  157.4153 O.3     1  UNL1       -0.4712
     27 C         139.1439  144.7227  155.9686 C.3     1  UNL1        0.2525
@<TRIPOS>BOND
     1    24    25    1
     2    25     1    1
     3     1     2    2
     4     2     3    1
     5     3     4    2
     6     4     5    1
     7     5     6    2
     8     6     7    1
     9     7     8    2
    10     8     9    1
    11     6    10    1
    12    10    11    1
    13    11    12    1
    14    12    13    1
    15    11    14   am
    16    14    15    2
    17    14    16    1
    18    16    17   ar
    19    17    26    1
    20    26    27    1
    21    17    18   ar
    22    18    19   ar
    23    19    20   ar
    24    20    21   ar
    25    21    22    1
    26    22    23    1
    27     9     1    1
    28    10    22    1
    29     8     4    1
    30    21    16   ar
    31    13     5    1
@<TRIPOS>MOLECULE
*****
 27 31 0 0 0
SMALL
GASTEIGER

@<TRIPOS>ATOM
      1 C         141.5951  139.7278  168.5212 C.2     1  UNL1        0.1222
      2 C         140.1639  140.1736  168.4703 C.2     1  UNL1        0.0328
      3 C         139.4339  140.2039  167.1602 C.2     1  UNL1        0.0037
      4 C         140.1352  139.7883  165.9011 C.2     1  UNL1        0.0114
      5 C         139.6772  139.7145  164.4747 C.2     1  UNL1       -0.0025
      6 C         140.8254  139.2230  163.6439 C.2     1  UNL1        0.0920
      7 N         141.9931  138.9931  164.5570 N.2     1  UNL1       -0.2505
      8 C         141.5664  139.3425  165.9520 C.2     1  UNL1        0.0660
      9 C         142.2964  139.3122  167.2621 C.3     1  UNL1        0.1095
     10 C         140.6593  139.0484  162.1634 C.3     1  UNL1        0.1939
     11 N         139.3450  139.3652  161.5136 N.am    1  UNL1       -0.2562
     12 C         138.1968  139.8567  162.3443 C.3     1  UNL1        0.1003
     13 C         138.3629  140.0314  163.8249 C.3     1  UNL1        0.0493
     14 C         139.1789  139.1906  160.0331 C.2     1  UNL1        0.2546
     15 O         137.8646  139.5074  159.3833 O.2     1  UNL1       -0.2697
     16 C         140.3272  138.6991  159.2024 C.ar    1  UNL1        0.1008
     17 C         140.1611  138.5245  157.7219 C.ar    1  UNL1        0.1442
     18 C         141.3093  138.0330  156.8912 C.ar    1  UNL1        0.0371
     19 C         142.6235  137.7162  157.5410 C.ar    1  UNL1        0.0044
     20 C         142.7896  137.8908  159.0216 C.ar    1  UNL1        0.0149
     21 C         141.6414  138.3823  159.8523 C.ar    1  UNL1        0.0566
     22 N         141.8075  138.5570  161.3328 N.pl3   1  UNL1       -0.2867
     23 C         143.1218  138.2401  161.9826 C.3     1  UNL1        0.1140
     24 C         142.9796  140.9418  170.3540 C.3     1  UNL1        0.2520
     25 O         142.3251  139.6975  169.8312 O.2     1  UNL1       -0.4753
     26 O         138.8468  138.8413  157.0721 O.3     1  UNL1       -0.4712
     27 C         138.7524  138.9362  155.5781 C.3     1  UNL1        0.2525
@<TRIPOS>BOND
     1    24    25    1
     2    25     1    1
     3     1     2    2
     4     2     3    1
     5     3     4    2
     6     4     5    1
     7     5     6    2
     8     6     7    1
     9     7     8    2
    10     8     9    1
    11     6    10    1
    12    10    11    1
    13    11    12    1
    14    12    13    1
    15    11    14   am
    16    14    15    2
    17    14    16    1
    18    16    17   ar
    19    17    26    1
    20    26    27    1
    21    17    18   ar
    22    18    19   ar
    23    19    20   ar
    24    20    21   ar
    25    21    22    1
    26    22    23    1
    27     9     1    1
    28    10    22    1
    29     8     4    1
    30    21    16   ar
    31    13     5    1
@<TRIPOS>MOLECULE
*****
 27 31 0 0 0
SMALL
GASTEIGER

@<TRIPOS>ATOM
      1 C         142.9872  141.9587  168.0997 C.2     1  UNL1        0.1222
      2 C         142.5686  140.5200  168.1697 C.2     1  UNL1        0.0328
      3 C         142.5095  139.6944  166.9188 C.2     1  UNL1        0.0037
      4 C         142.8689  140.3074  165.5979 C.2     1  UNL1        0.0114
      5 C         142.9045  139.7462  164.2073 C.2     1  UNL1       -0.0025
      6 C         143.3451  140.8380  163.2779 C.2     1  UNL1        0.0920
      7 N         143.5819  142.0740  164.0940 N.2     1  UNL1       -0.2505
      8 C         143.2876  141.7461  165.5279 C.2     1  UNL1        0.0660
      9 C         143.3467  142.5717  166.7788 C.3     1  UNL1        0.1095
     10 C         143.4738  140.5656  161.8084 C.3     1  UNL1        0.1939
     11 N         143.1619  139.2013  161.2684 N.am    1  UNL1       -0.2562
     12 C         142.7213  138.1095  162.1978 C.3     1  UNL1        0.1003
     13 C         142.5926  138.3819  163.6673 C.3     1  UNL1        0.0493
     14 C         143.2906  138.9288  159.7990 C.2     1  UNL1        0.2546
     15 O         142.9787  137.5646  159.2590 O.2     1  UNL1       -0.2697
     16 C         143.7312  140.0207  158.8695 C.ar    1  UNL1        0.1008
     17 C         143.8599  139.7482  157.4001 C.ar    1  UNL1        0.1442
     18 C         144.3005  140.8400  156.4707 C.ar    1  UNL1        0.0371
     19 C         144.6124  142.2042  157.0107 C.ar    1  UNL1        0.0044
     20 C         144.4837  142.4767  158.4802 C.ar    1  UNL1        0.0149
     21 C         144.0431  141.3849  159.4096 C.ar    1  UNL1        0.0566
     22 N         143.9144  141.6573  160.8791 N.pl3   1  UNL1       -0.2867
     23 C         144.2263  143.0215  161.4190 C.3     1  UNL1        0.1140
     24 C         142.3600  142.3083  170.5966 C.3     1  UNL1        0.2520
     25 O         143.0464  142.7843  169.3507 O.2     1  UNL1       -0.4753
     26 O         143.5480  138.3840  156.8602 O.3     1  UNL1       -0.4712
     27 C         144.0925  137.9623  155.5277 C.3     1  UNL1        0.2525
@<TRIPOS>BOND
     1    24    25    1
     2    25     1    1
     3     1     2    2
     4     2     3    1
     5     3     4    2
     6     4     5    1
     7     5     6    2
     8     6     7    1
     9     7     8    2
    10     8     9    1
    11     6    10    1
    12    10    11    1
    13    11    12    1
    14    12    13    1
    15    11    14   am
    16    14    15    2
    17    14    16    1
    18    16    17   ar
    19    17    26    1
    20    26    27    1
    21    17    18   ar
    22    18    19   ar
    23    19    20   ar
    24    20    21   ar
    25    21    22    1
    26    22    23    1
    27     9     1    1
    28    10    22    1
    29     8     4    1
    30    21    16   ar
    31    13     5    1
@<TRIPOS>MOLECULE
*****
 27 31 0 0 0
SMALL
GASTEIGER

@<TRIPOS>ATOM
      1 C         141.4683  141.2747  169.3511 C.2     1  UNL1        0.1222
      2 C         142.1148  139.9229  169.2824 C.2     1  UNL1        0.0328
      3 C         142.6356  139.4062  167.9740 C.2     1  UNL1        0.0037
      4 C         142.5099  140.2413  166.7344 C.2     1  UNL1        0.0114
      5 C         142.9266  139.9984  165.3140 C.2     1  UNL1       -0.0025
      6 C         142.5375  141.2000  164.5048 C.2     1  UNL1        0.0920
      7 N         141.8804  142.1856  165.4251 N.2     1  UNL1       -0.2505
      8 C         141.8633  141.5930  166.8030 C.2     1  UNL1        0.0660
      9 C         141.3425  142.1097  168.1114 C.3     1  UNL1        0.1095
     10 C         142.8319  141.2415  163.0346 C.3     1  UNL1        0.1939
     11 N         143.5154  140.0813  162.3735 N.am    1  UNL1       -0.2562
     12 C         143.9044  138.8797  163.1827 C.3     1  UNL1        0.1003
     13 C         143.6100  138.8382  164.6530 C.3     1  UNL1        0.0493
     14 C         143.8098  140.1228  160.9033 C.2     1  UNL1        0.2546
     15 O         144.4932  138.9627  160.2422 O.2     1  UNL1       -0.2697
     16 C         143.4208  141.3245  160.0941 C.ar    1  UNL1        0.1008
     17 C         143.7152  141.3660  158.6239 C.ar    1  UNL1        0.1442
     18 C         143.3261  142.5676  157.8147 C.ar    1  UNL1        0.0371
     19 C         142.6428  143.7277  158.4758 C.ar    1  UNL1        0.0044
     20 C         142.3483  143.6862  159.9461 C.ar    1  UNL1        0.0149
     21 C         142.7373  142.4846  160.7553 C.ar    1  UNL1        0.0566
     22 N         142.4429  142.4431  162.2255 N.pl3   1  UNL1       -0.2867
     23 C         141.7595  143.6032  162.8865 C.3     1  UNL1        0.1140
     24 C         139.8766  142.8415  170.6783 C.3     1  UNL1        0.2520
     25 O         140.9475  141.7914  170.6594 O.2     1  UNL1       -0.4753
     26 O         144.3986  140.2058  157.9628 O.3     1  UNL1       -0.4712
     27 C         144.1138  139.8878  156.5249 C.3     1  UNL1        0.2525
@<TRIPOS>BOND
     1    24    25    1
     2    25     1    1
     3     1     2    2
     4     2     3    1
     5     3     4    2
     6     4     5    1
     7     5     6    2
     8     6     7    1
     9     7     8    2
    10     8     9    1
    11     6    10    1
    12    10    11    1
    13    11    12    1
    14    12    13    1
    15    11    14   am
    16    14    15    2
    17    14    16    1
    18    16    17   ar
    19    17    26    1
    20    26    27    1
    21    17    18   ar
    22    18    19   ar
    23    19    20   ar
    24    20    21   ar
    25    21    22    1
    26    22    23    1
    27     9     1    1
    28    10    22    1
    29     8     4    1
    30    21    16   ar
    31    13     5    1
@<TRIPOS>MOLECULE
*****
 27 31 0 0 0
SMALL
GASTEIGER

@<TRIPOS>ATOM
      1 C         139.9343  144.5965  157.2040 C.2     1  UNL1        0.1222
      2 C         140.9350  145.5470  157.7914 C.2     1  UNL1        0.0328
      3 C         141.3063  145.4438  159.2411 C.2     1  UNL1        0.0037
      4 C         140.6770  144.3901  160.1033 C.2     1  UNL1        0.0114
      5 C         140.8445  144.0486  161.5543 C.2     1  UNL1       -0.0025
      6 C         139.9473  142.8869  161.8636 C.2     1  UNL1        0.0920
      7 N         139.2253  142.5105  160.6039 N.2     1  UNL1       -0.2505
      8 C         139.6763  143.4396  159.5159 C.2     1  UNL1        0.0660
      9 C         139.3050  143.5428  158.0663 C.3     1  UNL1        0.1095
     10 C         139.9038  142.3220  163.2525 C.3     1  UNL1        0.1939
     11 N         140.7574  142.9187  164.3320 N.am    1  UNL1       -0.2562
     12 C         141.6546  144.0803  164.0227 C.3     1  UNL1        0.1003
     13 C         141.6981  144.6453  162.6337 C.3     1  UNL1        0.0493
     14 C         140.7138  142.3537  165.7209 C.2     1  UNL1        0.2546
     15 O         141.5674  142.9504  166.8004 O.2     1  UNL1       -0.2697
     16 C         139.8167  141.1921  166.0303 C.ar    1  UNL1        0.1008
     17 C         139.7731  140.6271  167.4191 C.ar    1  UNL1        0.1442
     18 C         138.8759  139.4655  167.7285 C.ar    1  UNL1        0.0371
     19 C         138.0224  138.8688  166.6490 C.ar    1  UNL1        0.0044
     20 C         138.0659  139.4338  165.2600 C.ar    1  UNL1        0.0149
     21 C         138.9631  140.5954  164.9507 C.ar    1  UNL1        0.0566
     22 N         139.0067  141.1604  163.5618 N.pl3   1  UNL1       -0.2867
     23 C         138.1531  140.5637  162.4823 C.3     1  UNL1        0.1140
     24 C         138.7579  145.8680  155.2677 C.3     1  UNL1        0.2520
     25 O         139.5630  144.6997  155.7544 O.2     1  UNL1       -0.4753
     26 O         140.6267  141.2238  168.4986 O.3     1  UNL1       -0.4712
     27 C         139.9905  141.7660  169.7441 C.3     1  UNL1        0.2525
@<TRIPOS>BOND
     1    24    25    1
     2    25     1    1
     3     1     2    2
     4     2     3    1
     5     3     4    2
     6     4     5    1
     7     5     6    2
     8     6     7    1
     9     7     8    2
    10     8     9    1
    11     6    10    1
    12    10    11    1
    13    11    12    1
    14    12    13    1
    15    11    14   am
    16    14    15    2
    17    14    16    1
    18    16    17   ar
    19    17    26    1
    20    26    27    1
    21    17    18   ar
    22    18    19   ar
    23    19    20   ar
    24    20    21   ar
    25    21    22    1
    26    22    23    1
    27     9     1    1
    28    10    22    1
    29     8     4    1
    30    21    16   ar
    31    13     5    1
