@<TRIPOS>MOLECULE
*****
 36 40 0 0 0
SMALL
GASTEIGER

@<TRIPOS>ATOM
      1 N         138.0773  140.0621  162.4356 N.3     1  UNL1       -0.2703
      2 C         137.7013  140.7670  163.7051 C.3     1  UNL1        0.0736
      3 C         137.5857  142.2624  163.7266 C.3     1  UNL1        0.0356
      4 C         137.8460  143.0529  162.4786 C.3     1  UNL1        0.0843
      5 C         138.2221  142.3479  161.2091 C.3     1  UNL1        0.1407
      6 O         138.4824  143.1383  159.9612 O.3     1  UNL1       -0.3817
      7 C         138.3377  140.8525  161.1876 C.3     1  UNL1        0.1031
      8 H         138.7116  142.5342  159.2377 H       1  UNL1        0.2105
      9 N         137.7304  144.5482  162.5002 N.3     1  UNL1       -0.2915
     10 H         137.0902  144.7831  163.2587 H       1  UNL1        0.1236
     11 C         138.9555  145.3925  162.6904 C.3     1  UNL1        0.1153
     12 C         140.3166  144.7663  162.6185 C.ar    1  UNL1        0.0782
     13 C         140.9881  144.2857  163.8707 C.ar    1  UNL1        0.0562
     14 C         142.3493  143.6594  163.7988 C.ar    1  UNL1        0.1752
     15 C         143.0388  143.5137  162.4747 C.ar    1  UNL1        0.1914
     16 C         142.3672  143.9943  161.2225 C.ar    1  UNL1        0.1384
     17 N         141.0062  144.6206  161.2944 N.ar    1  UNL1       -0.2434
     18 O         144.3999  142.8874  162.4027 O.3     1  UNL1       -0.4668
     19 C         145.0715  142.4068  163.6549 C.3     1  UNL1        0.2527
     20 C         144.3819  142.5525  164.9791 C.3     1  UNL1        0.2526
     21 O         143.0208  143.1787  165.0510 O.3     1  UNL1       -0.4683
     22 C         138.1930  138.5667  162.4140 C.3     1  UNL1        0.0770
     23 C         138.9683  137.8589  163.4855 C.3     1  UNL1        0.0476
     24 C         139.9624  139.5962  167.5158 C.ar    1  UNL1        0.2250
     25 C         141.3688  140.0158  167.8254 C.ar    1  UNL1        0.0593
     26 C         142.4438  139.8563  166.7915 C.ar    1  UNL1        0.0254
     27 C         142.1125  139.2773  165.4481 C.ar    1  UNL1        0.0990
     28 N         143.1875  139.1178  164.4143 N.ar    1  UNL1       -0.2400
     29 C         142.8562  138.5387  163.0709 C.ar    1  UNL1        0.1281
     30 C         141.4497  138.1190  162.7612 C.ar    1  UNL1        0.1567
     31 F         141.1184  137.5400  161.4178 F       1  UNL1       -0.2028
     32 C         140.3747  138.2785  163.7951 C.ar    1  UNL1        0.0274
     33 C         140.7061  138.8576  165.1385 C.ar    1  UNL1        0.1002
     34 N         139.6310  139.0171  166.1724 N.ar    1  UNL1       -0.2104
     35 C         139.1716  140.5042  169.8180 C.3     1  UNL1        0.2542
     36 O         138.8873  139.7556  168.5496 O.3     1  UNL1       -0.4561
@<TRIPOS>BOND
     1    35    36    1
     2    36    24    1
     3    24    25   ar
     4    25    26   ar
     5    26    27   ar
     6    27    28   ar
     7    28    29   ar
     8    29    30   ar
     9    30    31    1
    10    30    32   ar
    11    32    23    1
    12    23    22    1
    13    22     1    1
    14     1     2    1
    15     2     3    1
    16     3     4    1
    17     4     9    1
    18     9    11    1
    19    11    12    1
    20    12    13   ar
    21    13    14   ar
    22    14    15   ar
    23    15    16   ar
    24    16    17   ar
    25    15    18    1
    26    18    19    1
    27    19    20    1
    28    20    21    1
    29     4     5    1
    30     5     6    1
    31     5     7    1
    32    32    33   ar
    33    33    34   ar
    34    34    24   ar
    35    33    27   ar
    36     7     1    1
    37    17    12   ar
    38    21    14    1
    39     9    10    1
    40     6     8    1
@<TRIPOS>MOLECULE
*****
 36 40 0 0 0
SMALL
GASTEIGER

@<TRIPOS>ATOM
      1 N         142.9986  144.0195  162.4088 N.3     1  UNL1       -0.2703
      2 C         142.4319  144.8862  163.4940 C.3     1  UNL1        0.0736
      3 C         140.9789  145.2581  163.4750 C.3     1  UNL1        0.0356
      4 C         140.0925  144.7632  162.3707 C.3     1  UNL1        0.0843
      5 C         140.6591  143.8965  161.2854 C.3     1  UNL1        0.1407
      6 O         139.7728  143.4016  160.1812 O.3     1  UNL1       -0.3817
      7 C         142.1122  143.5246  161.3045 C.3     1  UNL1        0.1031
      8 H         140.2927  142.8589  159.5679 H       1  UNL1        0.2105
      9 N         138.6394  145.1351  162.3516 N.3     1  UNL1       -0.2915
     10 H         138.3499  145.1413  161.3736 H       1  UNL1        0.1236
     11 C         137.6409  144.2968  163.0935 C.3     1  UNL1        0.1153
     12 C         137.8347  142.8128  163.1939 C.ar    1  UNL1        0.0782
     13 C         138.1735  142.1884  164.5150 C.ar    1  UNL1        0.0562
     14 C         138.3673  140.7043  164.6154 C.ar    1  UNL1        0.1752
     15 C         138.2221  139.8447  163.3947 C.ar    1  UNL1        0.1914
     16 C         137.8833  140.4692  162.0736 C.ar    1  UNL1        0.1384
     17 N         137.6895  141.9532  161.9732 N.ar    1  UNL1       -0.2434
     18 O         138.4159  138.3606  163.4951 O.3     1  UNL1       -0.4668
     19 C         138.7547  137.7362  164.8162 C.3     1  UNL1        0.2527
     20 C         138.8999  138.5958  166.0369 C.3     1  UNL1        0.2526
     21 O         138.7061  140.0798  165.9364 O.3     1  UNL1       -0.4683
     22 C         144.4516  143.6476  162.4279 C.3     1  UNL1        0.0770
     23 C         144.9631  142.6731  163.4471 C.3     1  UNL1        0.0476
     24 C         143.5462  139.0628  161.1651 C.ar    1  UNL1        0.2250
     25 C         142.6051  138.0894  161.8105 C.ar    1  UNL1        0.0593
     26 C         142.1362  138.3194  163.2167 C.ar    1  UNL1        0.0254
     27 C         142.6085  139.5228  163.9774 C.ar    1  UNL1        0.0990
     28 N         142.1396  139.7528  165.3835 N.ar    1  UNL1       -0.2400
     29 C         142.6118  140.9563  166.1442 C.ar    1  UNL1        0.1281
     30 C         143.5531  141.9297  165.4987 C.ar    1  UNL1        0.1567
     31 F         144.0253  143.1332  166.2594 F       1  UNL1       -0.2028
     32 C         144.0219  141.6997  164.0926 C.ar    1  UNL1        0.0274
     33 C         143.5496  140.4962  163.3319 C.ar    1  UNL1        0.1002
     34 N         144.0185  140.2662  161.9258 N.ar    1  UNL1       -0.2104
     35 C         143.2697  139.4447  158.6102 C.3     1  UNL1        0.2542
     36 O         144.0151  138.8328  159.7589 O.3     1  UNL1       -0.4561
@<TRIPOS>BOND
     1    35    36    1
     2    36    24    1
     3    24    25   ar
     4    25    26   ar
     5    26    27   ar
     6    27    28   ar
     7    28    29   ar
     8    29    30   ar
     9    30    31    1
    10    30    32   ar
    11    32    23    1
    12    23    22    1
    13    22     1    1
    14     1     2    1
    15     2     3    1
    16     3     4    1
    17     4     9    1
    18     9    11    1
    19    11    12    1
    20    12    13   ar
    21    13    14   ar
    22    14    15   ar
    23    15    16   ar
    24    16    17   ar
    25    15    18    1
    26    18    19    1
    27    19    20    1
    28    20    21    1
    29     4     5    1
    30     5     6    1
    31     5     7    1
    32    32    33   ar
    33    33    34   ar
    34    34    24   ar
    35    33    27   ar
    36     7     1    1
    37    17    12   ar
    38    21    14    1
    39     9    10    1
    40     6     8    1
@<TRIPOS>MOLECULE
*****
 36 40 0 0 0
SMALL
GASTEIGER

@<TRIPOS>ATOM
      1 N         141.7891  137.9783  164.1754 N.3     1  UNL1       -0.2703
      2 C         142.3899  138.5490  165.4257 C.3     1  UNL1        0.0736
      3 C         143.6874  139.2987  165.3598 C.3     1  UNL1        0.0356
      4 C         144.3841  139.4778  164.0435 C.3     1  UNL1        0.0843
      5 C         143.7833  138.9071  162.7932 C.3     1  UNL1        0.1407
      6 O         144.4799  139.0862  161.4769 O.3     1  UNL1       -0.3817
      7 C         142.4857  138.1573  162.8591 C.3     1  UNL1        0.1031
      8 H         143.9619  138.6600  160.7763 H       1  UNL1        0.2105
      9 N         145.6816  140.2276  163.9775 N.3     1  UNL1       -0.2915
     10 H         146.1840  139.8755  163.1627 H       1  UNL1        0.1236
     11 C         145.6786  141.7238  163.8712 C.3     1  UNL1        0.1153
     12 C         144.7277  142.4072  162.9339 C.ar    1  UNL1        0.0782
     13 C         143.6646  143.3166  163.4752 C.ar    1  UNL1        0.0562
     14 C         142.7137  144.0000  162.5377 C.ar    1  UNL1        0.1752
     15 C         142.8258  143.7741  161.0591 C.ar    1  UNL1        0.1914
     16 C         143.8889  142.8648  160.5179 C.ar    1  UNL1        0.1384
     17 N         144.8399  142.1814  161.4552 N.ar    1  UNL1       -0.2434
     18 O         141.8749  144.4575  160.1217 O.3     1  UNL1       -0.4668
     19 C         140.8118  145.3668  160.6630 C.3     1  UNL1        0.2527
     20 C         140.6996  145.5927  162.1417 C.3     1  UNL1        0.2526
     21 O         141.6506  144.9093  163.0790 O.3     1  UNL1       -0.4683
     22 C         140.4916  137.2285  164.2413 C.3     1  UNL1        0.0770
     23 C         139.2301  137.9447  164.6229 C.3     1  UNL1        0.0476
     24 C         139.9907  142.0584  166.2808 C.ar    1  UNL1        0.2250
     25 C         139.5538  143.2697  165.5115 C.ar    1  UNL1        0.0593
     26 C         138.8634  143.1097  164.1894 C.ar    1  UNL1        0.0254
     27 C         138.6099  141.7385  163.6368 C.ar    1  UNL1        0.0990
     28 N         137.9195  141.5785  162.3148 N.ar    1  UNL1       -0.2400
     29 C         137.6659  140.2073  161.7621 C.ar    1  UNL1        0.1281
     30 C         138.1028  138.9960  162.5315 C.ar    1  UNL1        0.1567
     31 F         137.8492  137.6248  161.9789 F       1  UNL1       -0.2028
     32 C         138.7932  139.1560  163.8535 C.ar    1  UNL1        0.0274
     33 C         139.0467  140.5273  164.4062 C.ar    1  UNL1        0.1002
     34 N         139.7372  140.6872  165.7282 N.ar    1  UNL1       -0.2104
     35 C         142.1713  142.0732  167.6931 C.3     1  UNL1        0.2542
     36 O         140.6811  142.2184  167.6029 O.3     1  UNL1       -0.4561
@<TRIPOS>BOND
     1    35    36    1
     2    36    24    1
     3    24    25   ar
     4    25    26   ar
     5    26    27   ar
     6    27    28   ar
     7    28    29   ar
     8    29    30   ar
     9    30    31    1
    10    30    32   ar
    11    32    23    1
    12    23    22    1
    13    22     1    1
    14     1     2    1
    15     2     3    1
    16     3     4    1
    17     4     9    1
    18     9    11    1
    19    11    12    1
    20    12    13   ar
    21    13    14   ar
    22    14    15   ar
    23    15    16   ar
    24    16    17   ar
    25    15    18    1
    26    18    19    1
    27    19    20    1
    28    20    21    1
    29     4     5    1
    30     5     6    1
    31     5     7    1
    32    32    33   ar
    33    33    34   ar
    34    34    24   ar
    35    33    27   ar
    36     7     1    1
    37    17    12   ar
    38    21    14    1
    39     9    10    1
    40     6     8    1
@<TRIPOS>MOLECULE
*****
 36 40 0 0 0
SMALL
GASTEIGER

@<TRIPOS>ATOM
      1 N         138.2121  139.7550  163.0577 N.3     1  UNL1       -0.2703
      2 C         138.3536  139.9798  164.5340 C.3     1  UNL1        0.0736
      3 C         138.1733  141.3555  165.1038 C.3     1  UNL1        0.0356
      4 C         137.8514  142.5066  164.1974 C.3     1  UNL1        0.0843
      5 C         137.7099  142.2817  162.7211 C.3     1  UNL1        0.1407
      6 O         137.3880  143.4327  161.8146 O.3     1  UNL1       -0.3817
      7 C         137.8902  140.9059  162.1513 C.3     1  UNL1        0.1031
      8 H         137.3322  143.1173  160.8990 H       1  UNL1        0.2105
      9 N         137.6711  143.8823  164.7672 N.3     1  UNL1       -0.2915
     10 H         137.3441  143.7633  165.7260 H       1  UNL1        0.1236
     11 C         138.8323  144.8303  164.8202 C.3     1  UNL1        0.1153
     12 C         140.0244  144.6061  163.9378 C.ar    1  UNL1        0.0782
     13 C         141.2412  143.9179  164.4815 C.ar    1  UNL1        0.0562
     14 C         142.4333  143.6938  163.5990 C.ar    1  UNL1        0.1752
     15 C         142.4085  144.1578  162.1728 C.ar    1  UNL1        0.1914
     16 C         141.1917  144.8460  161.6291 C.ar    1  UNL1        0.1384
     17 N         139.9996  145.0702  162.5115 N.ar    1  UNL1       -0.2434
     18 O         143.6006  143.9337  161.2903 O.3     1  UNL1       -0.4668
     19 C         144.8175  143.2455  161.8341 C.3     1  UNL1        0.2527
     20 C         144.8422  142.7814  163.2603 C.3     1  UNL1        0.2526
     21 O         143.6502  143.0056  164.1427 O.3     1  UNL1       -0.4683
     22 C         138.3924  138.3792  162.4879 C.3     1  UNL1        0.0770
     23 C         139.6890  137.6506  162.6830 C.3     1  UNL1        0.0476
     24 C         143.1720  138.6338  165.3574 C.ar    1  UNL1        0.2250
     25 C         144.4374  139.1839  164.7690 C.ar    1  UNL1        0.0593
     26 C         144.5418  139.4063  163.2893 C.ar    1  UNL1        0.0254
     27 C         143.3808  139.0786  162.3979 C.ar    1  UNL1        0.0990
     28 N         143.4852  139.3010  160.9181 N.ar    1  UNL1       -0.2400
     29 C         142.3243  138.9732  160.0267 C.ar    1  UNL1        0.1281
     30 C         141.0588  138.4231  160.6150 C.ar    1  UNL1        0.1567
     31 F         139.8978  138.0954  159.7236 F       1  UNL1       -0.2028
     32 C         140.9544  138.2007  162.0947 C.ar    1  UNL1        0.0274
     33 C         142.1154  138.5285  162.9862 C.ar    1  UNL1        0.1002
     34 N         142.0110  138.3061  164.4659 N.ar    1  UNL1       -0.2104
     35 C         142.6603  139.5393  167.7381 C.3     1  UNL1        0.2542
     36 O         143.0676  138.4114  166.8371 O.3     1  UNL1       -0.4561
@<TRIPOS>BOND
     1    35    36    1
     2    36    24    1
     3    24    25   ar
     4    25    26   ar
     5    26    27   ar
     6    27    28   ar
     7    28    29   ar
     8    29    30   ar
     9    30    31    1
    10    30    32   ar
    11    32    23    1
    12    23    22    1
    13    22     1    1
    14     1     2    1
    15     2     3    1
    16     3     4    1
    17     4     9    1
    18     9    11    1
    19    11    12    1
    20    12    13   ar
    21    13    14   ar
    22    14    15   ar
    23    15    16   ar
    24    16    17   ar
    25    15    18    1
    26    18    19    1
    27    19    20    1
    28    20    21    1
    29     4     5    1
    30     5     6    1
    31     5     7    1
    32    32    33   ar
    33    33    34   ar
    34    34    24   ar
    35    33    27   ar
    36     7     1    1
    37    17    12   ar
    38    21    14    1
    39     9    10    1
    40     6     8    1
@<TRIPOS>MOLECULE
*****
 36 40 0 0 0
SMALL
GASTEIGER

@<TRIPOS>ATOM
      1 N         140.9578  144.7765  162.9326 N.3     1  UNL1       -0.2703
      2 C         142.0573  144.9554  163.9372 C.3     1  UNL1        0.0736
      3 C         143.4389  144.4563  163.6339 C.3     1  UNL1        0.0356
      4 C         143.7211  143.7783  162.3259 C.3     1  UNL1        0.0843
      5 C         142.6216  143.5993  161.3213 C.3     1  UNL1        0.1407
      6 O         142.9038  142.9213  160.0134 O.3     1  UNL1       -0.3817
      7 C         141.2400  144.0984  161.6247 C.3     1  UNL1        0.1031
      8 H         142.0913  142.8878  159.4847 H       1  UNL1        0.2105
      9 N         145.1027  143.2792  162.0226 N.3     1  UNL1       -0.2915
     10 H         145.7534  143.9158  162.4827 H       1  UNL1        0.1236
     11 C         145.5023  141.8893  162.4208 C.3     1  UNL1        0.1153
     12 C         144.4995  140.7753  162.3640 C.ar    1  UNL1        0.0782
     13 C         143.9041  140.2368  163.6312 C.ar    1  UNL1        0.0562
     14 C         142.9012  139.1228  163.5743 C.ar    1  UNL1        0.1752
     15 C         142.4938  138.5472  162.2505 C.ar    1  UNL1        0.1914
     16 C         143.0892  139.0856  160.9833 C.ar    1  UNL1        0.1384
     17 N         144.0920  140.1996  161.0401 N.ar    1  UNL1       -0.2434
     18 O         141.4909  137.4331  162.1936 O.3     1  UNL1       -0.4668
     19 C         140.8955  136.8947  163.4607 C.3     1  UNL1        0.2527
     20 C         141.3029  137.4703  164.7847 C.3     1  UNL1        0.2526
     21 O         142.3058  138.5843  164.8414 O.3     1  UNL1       -0.4683
     22 C         139.5762  145.2756  163.2359 C.3     1  UNL1        0.0770
     23 C         138.7623  144.6220  164.3132 C.3     1  UNL1        0.0476
     24 C         140.5478  142.3925  167.7904 C.ar    1  UNL1        0.2250
     25 C         140.4490  140.8971  167.8529 C.ar    1  UNL1        0.0593
     26 C         139.7551  140.1448  166.7562 C.ar    1  UNL1        0.0254
     27 C         139.1600  140.8879  165.5972 C.ar    1  UNL1        0.0990
     28 N         138.4661  140.1357  164.5005 N.ar    1  UNL1       -0.2400
     29 C         137.8709  140.8788  163.3414 C.ar    1  UNL1        0.1281
     30 C         137.9697  142.3743  163.2790 C.ar    1  UNL1        0.1567
     31 F         137.3745  143.1174  162.1199 F       1  UNL1       -0.2028
     32 C         138.6636  143.1266  164.3756 C.ar    1  UNL1        0.0274
     33 C         139.2587  142.3833  165.5347 C.ar    1  UNL1        0.1002
     34 N         139.9526  143.1356  166.6313 N.ar    1  UNL1       -0.2104
     35 C         142.4693  142.5707  169.5299 C.3     1  UNL1        0.2542
     36 O         141.2416  143.1447  168.8871 O.3     1  UNL1       -0.4561
@<TRIPOS>BOND
     1    35    36    1
     2    36    24    1
     3    24    25   ar
     4    25    26   ar
     5    26    27   ar
     6    27    28   ar
     7    28    29   ar
     8    29    30   ar
     9    30    31    1
    10    30    32   ar
    11    32    23    1
    12    23    22    1
    13    22     1    1
    14     1     2    1
    15     2     3    1
    16     3     4    1
    17     4     9    1
    18     9    11    1
    19    11    12    1
    20    12    13   ar
    21    13    14   ar
    22    14    15   ar
    23    15    16   ar
    24    16    17   ar
    25    15    18    1
    26    18    19    1
    27    19    20    1
    28    20    21    1
    29     4     5    1
    30     5     6    1
    31     5     7    1
    32    32    33   ar
    33    33    34   ar
    34    34    24   ar
    35    33    27   ar
    36     7     1    1
    37    17    12   ar
    38    21    14    1
    39     9    10    1
    40     6     8    1
@<TRIPOS>MOLECULE
*****
 36 40 0 0 0
SMALL
GASTEIGER

@<TRIPOS>ATOM
      1 N         140.1350  143.9485  164.1986 N.3     1  UNL1       -0.2703
      2 C         140.8017  143.1259  165.2610 C.3     1  UNL1        0.0736
      3 C         142.2774  142.8663  165.1929 C.3     1  UNL1        0.0356
      4 C         143.0866  143.4292  164.0623 C.3     1  UNL1        0.0843
      5 C         142.4200  144.2519  162.9998 C.3     1  UNL1        0.1407
      6 O         143.2291  144.8149  161.8692 O.3     1  UNL1       -0.3817
      7 C         140.9442  144.5115  163.0679 C.3     1  UNL1        0.1031
      8 H         142.6494  145.3172  161.2754 H       1  UNL1        0.2105
      9 N         144.5624  143.1696  163.9941 N.3     1  UNL1       -0.2915
     10 H         144.9813  143.6390  164.7970 H       1  UNL1        0.1236
     11 C         145.0771  141.7607  163.9991 C.3     1  UNL1        0.1153
     12 C         144.5292  140.7586  163.0267 C.ar    1  UNL1        0.0782
     13 C         144.3864  141.1199  161.5779 C.ar    1  UNL1        0.0562
     14 C         143.8385  140.1178  160.6055 C.ar    1  UNL1        0.1752
     15 C         143.4334  138.7544  161.0818 C.ar    1  UNL1        0.1914
     16 C         143.5762  138.3930  162.5307 C.ar    1  UNL1        0.1384
     17 N         144.1241  139.3951  163.5031 N.ar    1  UNL1       -0.2434
     18 O         142.8855  137.7522  160.1094 O.3     1  UNL1       -0.4668
     19 C         142.7428  138.1136  158.6606 C.3     1  UNL1        0.2527
     20 C         143.1479  139.4770  158.1842 C.3     1  UNL1        0.2526
     21 O         143.6958  140.4791  159.1566 O.3     1  UNL1       -0.4683
     22 C         138.6593  144.2082  164.2667 C.3     1  UNL1        0.0770
     23 C         137.6966  143.0585  164.3085 C.3     1  UNL1        0.0476
     24 C         138.5177  139.1313  166.3463 C.ar    1  UNL1        0.2250
     25 C         138.7812  137.9023  165.5277 C.ar    1  UNL1        0.0593
     26 C         138.7710  137.9824  164.0299 C.ar    1  UNL1        0.0254
     27 C         138.4973  139.2914  163.3506 C.ar    1  UNL1        0.0990
     28 N         138.4871  139.3714  161.8528 N.ar    1  UNL1       -0.2400
     29 C         138.2134  140.6805  161.1735 C.ar    1  UNL1        0.1281
     30 C         137.9499  141.9096  161.9921 C.ar    1  UNL1        0.1567
     31 F         137.6762  143.2186  161.3128 F       1  UNL1       -0.2028
     32 C         137.9601  141.8295  163.4899 C.ar    1  UNL1        0.0274
     33 C         138.2338  140.5204  164.1692 C.ar    1  UNL1        0.1002
     34 N         138.2440  140.4404  165.6670 N.ar    1  UNL1       -0.2104
     35 C         139.3747  139.9995  168.6401 C.3     1  UNL1        0.2542
     36 O         138.5279  139.0513  167.8441 O.3     1  UNL1       -0.4561
@<TRIPOS>BOND
     1    35    36    1
     2    36    24    1
     3    24    25   ar
     4    25    26   ar
     5    26    27   ar
     6    27    28   ar
     7    28    29   ar
     8    29    30   ar
     9    30    31    1
    10    30    32   ar
    11    32    23    1
    12    23    22    1
    13    22     1    1
    14     1     2    1
    15     2     3    1
    16     3     4    1
    17     4     9    1
    18     9    11    1
    19    11    12    1
    20    12    13   ar
    21    13    14   ar
    22    14    15   ar
    23    15    16   ar
    24    16    17   ar
    25    15    18    1
    26    18    19    1
    27    19    20    1
    28    20    21    1
    29     4     5    1
    30     5     6    1
    31     5     7    1
    32    32    33   ar
    33    33    34   ar
    34    34    24   ar
    35    33    27   ar
    36     7     1    1
    37    17    12   ar
    38    21    14    1
    39     9    10    1
    40     6     8    1
@<TRIPOS>MOLECULE
*****
 36 40 0 0 0
SMALL
GASTEIGER

@<TRIPOS>ATOM
      1 N         143.5374  141.8453  164.2068 N.3     1  UNL1       -0.2703
      2 C         142.5434  142.1528  165.2872 C.3     1  UNL1        0.0736
      3 C         141.6675  143.3656  165.1775 C.3     1  UNL1        0.0356
      4 C         141.7858  144.2709  163.9873 C.3     1  UNL1        0.0843
      5 C         142.7798  143.9635  162.9069 C.3     1  UNL1        0.1407
      6 O         142.8981  144.8688  161.7168 O.3     1  UNL1       -0.3817
      7 C         143.6557  142.7506  163.0167 C.3     1  UNL1        0.1031
      8 H         143.5818  144.5288  161.1186 H       1  UNL1        0.2105
      9 N         140.9099  145.4837  163.8776 N.3     1  UNL1       -0.2915
     10 H         141.4381  146.1820  163.3543 H       1  UNL1        0.1236
     11 C         139.5636  145.3800  163.2244 C.3     1  UNL1        0.1153
     12 C         139.3271  144.3583  162.1520 C.ar    1  UNL1        0.0782
     13 C         138.5789  143.0975  162.4692 C.ar    1  UNL1        0.0562
     14 C         138.3423  142.0758  161.3966 C.ar    1  UNL1        0.1752
     15 C         138.8539  142.3149  160.0070 C.ar    1  UNL1        0.1914
     16 C         139.6021  143.5757  159.6899 C.ar    1  UNL1        0.1384
     17 N         139.8387  144.5974  160.7623 N.ar    1  UNL1       -0.2434
     18 O         138.6174  141.2932  158.9345 O.3     1  UNL1       -0.4668
     19 C         137.8691  140.0324  159.2517 C.3     1  UNL1        0.2527
     20 C         137.3575  139.7933  160.6414 C.3     1  UNL1        0.2526
     21 O         137.5941  140.8150  161.7138 O.3     1  UNL1       -0.4683
     22 C         144.4133  140.6326  164.3165 C.3     1  UNL1        0.0770
     23 C         143.8100  139.2989  164.6447 C.3     1  UNL1        0.0476
     24 C         139.5963  139.1298  166.2150 C.ar    1  UNL1        0.2250
     25 C         138.4985  138.5720  165.3585 C.ar    1  UNL1        0.0593
     26 C         138.8053  138.0705  163.9785 C.ar    1  UNL1        0.0254
     27 C         140.2099  138.1269  163.4550 C.ar    1  UNL1        0.0990
     28 N         140.5167  137.6254  162.0750 N.ar    1  UNL1       -0.2400
     29 C         141.9212  137.6818  161.5515 C.ar    1  UNL1        0.1281
     30 C         143.0190  138.2397  162.4081 C.ar    1  UNL1        0.1567
     31 F         144.4236  138.2960  161.8846 F       1  UNL1       -0.2028
     32 C         142.7122  138.7411  163.7881 C.ar    1  UNL1        0.0274
     33 C         141.3076  138.6847  164.3116 C.ar    1  UNL1        0.1002
     34 N         141.0008  139.1862  165.6916 N.ar    1  UNL1       -0.2104
     35 C         139.9749  140.8594  168.1163 C.3     1  UNL1        0.2542
     36 O         139.2895  139.6313  167.5950 O.3     1  UNL1       -0.4561
@<TRIPOS>BOND
     1    35    36    1
     2    36    24    1
     3    24    25   ar
     4    25    26   ar
     5    26    27   ar
     6    27    28   ar
     7    28    29   ar
     8    29    30   ar
     9    30    31    1
    10    30    32   ar
    11    32    23    1
    12    23    22    1
    13    22     1    1
    14     1     2    1
    15     2     3    1
    16     3     4    1
    17     4     9    1
    18     9    11    1
    19    11    12    1
    20    12    13   ar
    21    13    14   ar
    22    14    15   ar
    23    15    16   ar
    24    16    17   ar
    25    15    18    1
    26    18    19    1
    27    19    20    1
    28    20    21    1
    29     4     5    1
    30     5     6    1
    31     5     7    1
    32    32    33   ar
    33    33    34   ar
    34    34    24   ar
    35    33    27   ar
    36     7     1    1
    37    17    12   ar
    38    21    14    1
    39     9    10    1
    40     6     8    1
@<TRIPOS>MOLECULE
*****
 36 40 0 0 0
SMALL
GASTEIGER

@<TRIPOS>ATOM
      1 N         139.5215  138.2763  163.5209 N.3     1  UNL1       -0.2703
      2 C         139.9851  138.0224  162.1171 C.3     1  UNL1        0.0736
      3 C         139.4022  138.8092  160.9809 C.3     1  UNL1        0.0356
      4 C         138.3556  139.8500  161.2485 C.3     1  UNL1        0.0843
      5 C         137.8920  140.1039  162.6523 C.3     1  UNL1        0.1407
      6 O         136.8455  141.1446  162.9198 O.3     1  UNL1       -0.3817
      7 C         138.4750  139.3170  163.7885 C.3     1  UNL1        0.1031
      8 H         136.6619  141.1813  163.8716 H       1  UNL1        0.2105
      9 N         137.7727  140.6369  160.1123 N.3     1  UNL1       -0.2915
     10 H         136.8059  140.8441  160.3630 H       1  UNL1        0.1236
     11 C         138.4005  141.9350  159.6990 C.3     1  UNL1        0.1153
     12 C         139.1426  142.7632  160.7056 C.ar    1  UNL1        0.0782
     13 C         140.6423  142.7476  160.7304 C.ar    1  UNL1        0.0562
     14 C         141.3844  143.5759  161.7371 C.ar    1  UNL1        0.1752
     15 C         140.6267  144.4197  162.7189 C.ar    1  UNL1        0.1914
     16 C         139.1270  144.4353  162.6940 C.ar    1  UNL1        0.1384
     17 N         138.3849  143.6071  161.6874 N.ar    1  UNL1       -0.2434
     18 O         141.3688  145.2480  163.7255 O.3     1  UNL1       -0.4668
     19 C         142.8685  145.2324  163.7504 C.3     1  UNL1        0.2527
     20 C         143.6262  144.3885  162.7686 C.3     1  UNL1        0.2526
     21 O         142.8841  143.5603  161.7620 O.3     1  UNL1       -0.4683
     22 C         140.1044  137.4894  164.6571 C.3     1  UNL1        0.0770
     23 C         141.5908  137.4451  164.8540 C.3     1  UNL1        0.0476
     24 C         141.4850  140.6305  168.0309 C.ar    1  UNL1        0.2250
     25 C         142.3006  141.8789  167.8686 C.ar    1  UNL1        0.0593
     26 C         143.1514  142.0655  166.6474 C.ar    1  UNL1        0.0254
     27 C         143.1867  141.0037  165.5885 C.ar    1  UNL1        0.0990
     28 N         144.0375  141.1904  164.3673 N.ar    1  UNL1       -0.2400
     29 C         144.0728  140.1286  163.3084 C.ar    1  UNL1        0.1281
     30 C         143.2572  138.8802  163.4706 C.ar    1  UNL1        0.1567
     31 F         143.2924  137.8184  162.4117 F       1  UNL1       -0.2028
     32 C         142.4064  138.6935  164.6918 C.ar    1  UNL1        0.0274
     33 C         142.3711  139.7554  165.7508 C.ar    1  UNL1        0.1002
     34 N         141.5203  139.5687  166.9719 N.ar    1  UNL1       -0.2104
     35 C         139.8436  141.5955  169.7985 C.3     1  UNL1        0.2542
     36 O         140.6342  140.4438  169.2520 O.3     1  UNL1       -0.4561
@<TRIPOS>BOND
     1    35    36    1
     2    36    24    1
     3    24    25   ar
     4    25    26   ar
     5    26    27   ar
     6    27    28   ar
     7    28    29   ar
     8    29    30   ar
     9    30    31    1
    10    30    32   ar
    11    32    23    1
    12    23    22    1
    13    22     1    1
    14     1     2    1
    15     2     3    1
    16     3     4    1
    17     4     9    1
    18     9    11    1
    19    11    12    1
    20    12    13   ar
    21    13    14   ar
    22    14    15   ar
    23    15    16   ar
    24    16    17   ar
    25    15    18    1
    26    18    19    1
    27    19    20    1
    28    20    21    1
    29     4     5    1
    30     5     6    1
    31     5     7    1
    32    32    33   ar
    33    33    34   ar
    34    34    24   ar
    35    33    27   ar
    36     7     1    1
    37    17    12   ar
    38    21    14    1
    39     9    10    1
    40     6     8    1
@<TRIPOS>MOLECULE
*****
 36 40 0 0 0
SMALL
GASTEIGER

@<TRIPOS>ATOM
      1 N         143.0686  139.6055  161.2654 N.3     1  UNL1       -0.2703
      2 C         142.0855  140.1008  160.2465 C.3     1  UNL1        0.0736
      3 C         140.7375  139.4536  160.1284 C.3     1  UNL1        0.0356
      4 C         140.3726  138.3111  161.0293 C.3     1  UNL1        0.0843
      5 C         141.3557  137.8158  162.0482 C.3     1  UNL1        0.1407
      6 O         140.9909  136.6733  162.9491 O.3     1  UNL1       -0.3817
      7 C         142.7038  138.4631  162.1662 C.3     1  UNL1        0.1031
      8 H         141.7328  136.4806  163.5434 H       1  UNL1        0.2105
      9 N         139.0246  137.6639  160.9112 N.3     1  UNL1       -0.2915
     10 H         139.1524  136.6756  161.1288 H       1  UNL1        0.1236
     11 C         137.8832  138.1489  161.7551 C.3     1  UNL1        0.1153
     12 C         138.0341  139.3951  162.5760 C.ar    1  UNL1        0.0782
     13 C         137.7770  140.7369  161.9568 C.ar    1  UNL1        0.0562
     14 C         137.9279  141.9832  162.7778 C.ar    1  UNL1        0.1752
     15 C         138.3360  141.8877  164.2180 C.ar    1  UNL1        0.1914
     16 C         138.5931  140.5459  164.8373 C.ar    1  UNL1        0.1384
     17 N         138.4422  139.2997  164.0164 N.ar    1  UNL1       -0.2434
     18 O         138.4869  143.1340  165.0391 O.3     1  UNL1       -0.4668
     19 C         138.2298  144.4758  164.4198 C.3     1  UNL1        0.2527
     20 C         137.8217  144.5713  162.9795 C.3     1  UNL1        0.2526
     21 O         137.6708  143.3250  162.1585 O.3     1  UNL1       -0.4683
     22 C         144.4166  140.2528  161.3834 C.3     1  UNL1        0.0770
     23 C         144.7785  141.0108  162.6263 C.3     1  UNL1        0.0476
     24 C         142.7788  140.1398  166.5623 C.ar    1  UNL1        0.2250
     25 C         141.8123  141.1266  167.1471 C.ar    1  UNL1        0.0593
     26 C         141.5123  142.4037  166.4198 C.ar    1  UNL1        0.0254
     27 C         142.1788  142.6940  165.1078 C.ar    1  UNL1        0.0990
     28 N         141.8788  143.9712  164.3805 N.ar    1  UNL1       -0.2400
     29 C         142.5453  144.2615  163.0685 C.ar    1  UNL1        0.1281
     30 C         143.5119  143.2747  162.4837 C.ar    1  UNL1        0.1567
     31 F         144.1784  143.5650  161.1717 F       1  UNL1       -0.2028
     32 C         143.8119  141.9976  163.2110 C.ar    1  UNL1        0.0274
     33 C         143.1453  141.7072  164.5231 C.ar    1  UNL1        0.1002
     34 N         143.4453  140.4301  165.2503 N.ar    1  UNL1       -0.2104
     35 C         144.0432  137.8746  166.7035 C.3     1  UNL1        0.2542
     36 O         143.0788  138.8626  167.2896 O.3     1  UNL1       -0.4561
@<TRIPOS>BOND
     1    35    36    1
     2    36    24    1
     3    24    25   ar
     4    25    26   ar
     5    26    27   ar
     6    27    28   ar
     7    28    29   ar
     8    29    30   ar
     9    30    31    1
    10    30    32   ar
    11    32    23    1
    12    23    22    1
    13    22     1    1
    14     1     2    1
    15     2     3    1
    16     3     4    1
    17     4     9    1
    18     9    11    1
    19    11    12    1
    20    12    13   ar
    21    13    14   ar
    22    14    15   ar
    23    15    16   ar
    24    16    17   ar
    25    15    18    1
    26    18    19    1
    27    19    20    1
    28    20    21    1
    29     4     5    1
    30     5     6    1
    31     5     7    1
    32    32    33   ar
    33    33    34   ar
    34    34    24   ar
    35    33    27   ar
    36     7     1    1
    37    17    12   ar
    38    21    14    1
    39     9    10    1
    40     6     8    1
