@<TRIPOS>MOLECULE
*****
 34 38 0 0 0
SMALL
GASTEIGER

@<TRIPOS>ATOM
      1 C         143.6837  141.7835  164.7899 C.ar    1  UNL1        0.1646
      2 N         142.6998  142.3703  163.8215 N.ar    1  UNL1       -0.2224
      3 C         143.4313  142.6834  162.5500 C.ar    1  UNL1        0.1074
      4 C         144.8673  142.2903  162.7324 C.ar    1  UNL1        0.0588
      5 S         145.0233  141.7341  164.1167 S.2     1  UNL1       -0.0508
      6 C         142.8320  143.2843  161.3132 C.ar    1  UNL1        0.1026
      7 C         143.4181  142.9725  159.9681 C.ar    1  UNL1        0.0224
      8 C         142.8187  143.5734  158.7312 C.ar    1  UNL1        0.0239
      9 C         141.6333  144.4860  158.8394 C.ar    1  UNL1        0.1189
     10 C         141.0472  144.7978  160.1845 C.ar    1  UNL1        0.2416
     11 N         141.6465  144.1970  161.4214 N.ar    1  UNL1       -0.2089
     12 N         141.0340  145.0869  157.6026 N.ar    1  UNL1       -0.2826
     13 C         141.7035  146.0666  156.6848 C.ar    1  UNL1        0.1826
     14 N         140.7433  146.3987  155.5814 N.ar    1  UNL1       -0.2280
     15 C         139.4804  145.6244  155.8172 C.ar    1  UNL1        0.0786
     16 C         138.2532  145.6554  154.9550 C.3     1  UNL1        0.0538
     17 C         139.6601  144.8136  157.0663 C.ar    1  UNL1        0.0963
     18 O         139.8617  145.7105  160.2928 O.3     1  UNL1       -0.4551
     19 C         139.4928  146.3068  161.6188 C.3     1  UNL1        0.2543
     20 N         143.3812  141.3265  166.1861 N.pl3   1  UNL1       -0.2786
     21 H         144.0908  141.3261  166.8686 H       1  UNL1        0.1555
     22 N         141.1107  141.4779  167.5886 N.ar    1  UNL1       -0.2383
     23 N         139.8228  140.7091  167.6081 N.ar    1  UNL1       -0.1729
     24 C         139.9137  139.6261  166.5742 C.ar    1  UNL1        0.0766
     25 C         141.2577  139.7256  165.9157 C.ar    1  UNL1        0.0241
     26 C         141.9975  140.8700  166.5426 C.ar    1  UNL1        0.1275
     27 C         141.3486  138.6426  164.8818 C.3     1  UNL1        0.0267
     28 C         142.5215  138.3754  163.9857 C.3     1  UNL1        0.0048
     29 C         140.0608  137.8739  164.9014 C.3     1  UNL1        0.0101
     30 C         139.1739  138.4817  165.9473 C.3     1  UNL1        0.0372
     31 C         138.2065  137.4179  165.5204 C.3     1  UNL1        0.0060
     32 C         138.0849  138.8671  166.9040 C.3     1  UNL1        0.0060
     33 C         140.4724  143.1263  169.4926 C.3     1  UNL1        0.0285
     34 C         141.4518  142.6489  168.4617 C.3     1  UNL1        0.1289
@<TRIPOS>BOND
     1    33    34    1
     2    34    22    1
     3    22    23   ar
     4    23    24   ar
     5    24    25   ar
     6    25    26   ar
     7    26    20    1
     8    20     1    1
     9     1     2   ar
    10     2     3   ar
    11     3     6    1
    12     6     7   ar
    13     7     8   ar
    14     8     9   ar
    15     9    12    1
    16    12    13   ar
    17    13    14   ar
    18    14    15   ar
    19    15    16    1
    20    15    17   ar
    21     9    10   ar
    22    10    18    1
    23    18    19    1
    24    10    11   ar
    25     3     4   ar
    26     4     5   ar
    27    25    27    1
    28    27    28    1
    29    27    29    1
    30    29    30    1
    31    30    31    1
    32    30    32    1
    33    26    22   ar
    34     5     1   ar
    35    30    24    1
    36    11     6   ar
    37    17    12   ar
    38    20    21    1
@<TRIPOS>MOLECULE
*****
 34 38 0 0 0
SMALL
GASTEIGER

@<TRIPOS>ATOM
      1 C         143.4495  136.5220  156.2960 C.ar    1  UNL1        0.1646
      2 N         142.8632  136.4453  157.6747 N.ar    1  UNL1       -0.2224
      3 C         142.4462  137.8284  158.0786 C.ar    1  UNL1        0.1074
      4 C         142.7747  138.7598  156.9497 C.ar    1  UNL1        0.0588
      5 S         143.3947  137.9525  155.8481 S.2     1  UNL1       -0.0508
      6 C         141.8121  138.2125  159.3826 C.ar    1  UNL1        0.1026
      7 C         140.4895  138.9200  159.3937 C.ar    1  UNL1        0.0224
      8 C         139.8553  139.3042  160.6977 C.ar    1  UNL1        0.0239
      9 C         140.5437  138.9808  161.9905 C.ar    1  UNL1        0.1189
     10 C         141.8664  138.2732  161.9794 C.ar    1  UNL1        0.2416
     11 N         142.5005  137.8891  160.6754 N.ar    1  UNL1       -0.2089
     12 N         139.9096  139.3649  163.2944 N.ar    1  UNL1       -0.2826
     13 C         139.9361  140.7280  163.9200 C.ar    1  UNL1        0.1826
     14 N         139.1805  140.6589  165.2140 N.ar    1  UNL1       -0.2280
     15 C         138.6870  139.2531  165.3880 C.ar    1  UNL1        0.0786
     16 C         137.8838  138.7376  166.5454 C.3     1  UNL1        0.0538
     17 C         139.1376  138.4534  164.2017 C.ar    1  UNL1        0.0963
     18 O         142.5548  137.9498  163.2723 O.3     1  UNL1       -0.4551
     19 C         143.4934  138.9428  163.8911 C.3     1  UNL1        0.2543
     20 N         143.9947  135.3704  155.5045 N.pl3   1  UNL1       -0.2786
     21 H         144.7867  135.4967  154.9335 H       1  UNL1        0.1555
     22 N         143.5257  133.0112  156.6703 N.ar    1  UNL1       -0.2383
     23 N         142.6746  131.8190  156.3472 N.ar    1  UNL1       -0.1729
     24 C         141.9561  132.0975  155.0602 C.ar    1  UNL1        0.0766
     25 C         142.3632  133.4617  154.5879 C.ar    1  UNL1        0.0241
     26 C         143.3332  134.0264  155.5830 C.ar    1  UNL1        0.1275
     27 C         141.6447  133.7402  153.3010 C.3     1  UNL1        0.0267
     28 C         141.7575  134.9912  152.4810 C.3     1  UNL1        0.0048
     29 C         140.7937  132.5480  152.9779 C.3     1  UNL1        0.0101
     30 C         140.9861  131.5328  154.0652 C.3     1  UNL1        0.0372
     31 C         140.0138  130.7203  153.2624 C.3     1  UNL1        0.0060
     32 C         140.9753  130.3477  154.9846 C.3     1  UNL1        0.0060
     33 C         145.5704  132.2279  158.0688 C.3     1  UNL1        0.0285
     34 C         144.4134  133.1616  157.8700 C.3     1  UNL1        0.1289
@<TRIPOS>BOND
     1    33    34    1
     2    34    22    1
     3    22    23   ar
     4    23    24   ar
     5    24    25   ar
     6    25    26   ar
     7    26    20    1
     8    20     1    1
     9     1     2   ar
    10     2     3   ar
    11     3     6    1
    12     6     7   ar
    13     7     8   ar
    14     8     9   ar
    15     9    12    1
    16    12    13   ar
    17    13    14   ar
    18    14    15   ar
    19    15    16    1
    20    15    17   ar
    21     9    10   ar
    22    10    18    1
    23    18    19    1
    24    10    11   ar
    25     3     4   ar
    26     4     5   ar
    27    25    27    1
    28    27    28    1
    29    27    29    1
    30    29    30    1
    31    30    31    1
    32    30    32    1
    33    26    22   ar
    34     5     1   ar
    35    30    24    1
    36    11     6   ar
    37    17    12   ar
    38    20    21    1
@<TRIPOS>MOLECULE
*****
 34 38 0 0 0
SMALL
GASTEIGER

@<TRIPOS>ATOM
      1 C         140.0381  141.4123  164.0281 C.ar    1  UNL1        0.1646
      2 N         140.4855  141.7421  162.6348 N.ar    1  UNL1       -0.2224
      3 C         139.7148  142.9430  162.1725 C.ar    1  UNL1        0.1074
      4 C         138.7912  143.3555  163.2801 C.ar    1  UNL1        0.0588
      5 S         138.9909  142.4096  164.4268 S.2     1  UNL1       -0.0508
      6 C         139.8450  143.6137  160.8372 C.ar    1  UNL1        0.1026
      7 C         140.7013  144.8368  160.6925 C.ar    1  UNL1        0.0224
      8 C         140.8315  145.5075  159.3570 C.ar    1  UNL1        0.0239
      9 C         140.1055  144.9552  158.1664 C.ar    1  UNL1        0.1189
     10 C         139.2492  143.7321  158.3111 C.ar    1  UNL1        0.2416
     11 N         139.1190  143.0614  159.6465 N.ar    1  UNL1       -0.2089
     12 N         140.2357  145.6259  156.8311 N.ar    1  UNL1       -0.2826
     13 C         141.0176  145.1117  155.6587 C.ar    1  UNL1        0.1826
     14 N         140.8720  146.0965  154.5367 N.ar    1  UNL1       -0.2280
     15 C         140.0001  147.2193  155.0156 C.ar    1  UNL1        0.0786
     16 C         139.5930  148.4218  154.2167 C.3     1  UNL1        0.0538
     17 C         139.6069  146.9284  156.4336 C.ar    1  UNL1        0.0963
     18 O         138.5231  143.1797  157.1204 O.3     1  UNL1       -0.4551
     19 C         138.9885  141.9038  156.4836 C.3     1  UNL1        0.2543
     20 N         140.5483  140.2835  164.8740 N.pl3   1  UNL1       -0.2786
     21 H         141.0278  139.5324  164.4555 H       1  UNL1        0.1555
     22 N         139.2255  139.5959  167.0927 N.ar    1  UNL1       -0.2383
     23 N         139.3875  139.8829  168.5560 N.ar    1  UNL1       -0.1729
     24 C         140.5900  140.7634  168.7254 C.ar    1  UNL1        0.0766
     25 C         141.1712  141.0206  167.3667 C.ar    1  UNL1        0.0241
     26 C         140.3279  140.2991  166.3577 C.ar    1  UNL1        0.1275
     27 C         142.3737  141.9011  167.5361 C.3     1  UNL1        0.0267
     28 C         143.2588  142.4061  166.4353 C.3     1  UNL1        0.0048
     29 C         142.5357  142.1880  168.9994 C.3     1  UNL1        0.0101
     30 C         141.4334  141.4849  169.7345 C.3     1  UNL1        0.0372
     31 C         142.0742  142.0856  170.9503 C.3     1  UNL1        0.0060
     32 C         140.4650  140.9073  170.7237 C.3     1  UNL1        0.0060
     33 C         137.2615  137.9135  167.3419 C.3     1  UNL1        0.0285
     34 C         138.1499  138.7537  166.4732 C.3     1  UNL1        0.1289
@<TRIPOS>BOND
     1    33    34    1
     2    34    22    1
     3    22    23   ar
     4    23    24   ar
     5    24    25   ar
     6    25    26   ar
     7    26    20    1
     8    20     1    1
     9     1     2   ar
    10     2     3   ar
    11     3     6    1
    12     6     7   ar
    13     7     8   ar
    14     8     9   ar
    15     9    12    1
    16    12    13   ar
    17    13    14   ar
    18    14    15   ar
    19    15    16    1
    20    15    17   ar
    21     9    10   ar
    22    10    18    1
    23    18    19    1
    24    10    11   ar
    25     3     4   ar
    26     4     5   ar
    27    25    27    1
    28    27    28    1
    29    27    29    1
    30    29    30    1
    31    30    31    1
    32    30    32    1
    33    26    22   ar
    34     5     1   ar
    35    30    24    1
    36    11     6   ar
    37    17    12   ar
    38    20    21    1
@<TRIPOS>MOLECULE
*****
 34 38 0 0 0
SMALL
GASTEIGER

@<TRIPOS>ATOM
      1 C         141.8261  139.9243  162.4286 C.ar    1  UNL1        0.1646
      2 N         142.8582  139.7135  161.3607 N.ar    1  UNL1       -0.2224
      3 C         142.8812  140.9351  160.4906 C.ar    1  UNL1        0.1074
      4 C         141.8633  141.9009  161.0207 C.ar    1  UNL1        0.0588
      5 S         141.2113  141.2763  162.2184 S.2     1  UNL1       -0.0508
      6 C         143.7666  141.1527  159.2996 C.ar    1  UNL1        0.1026
      7 C         144.5110  142.4457  159.1446 C.ar    1  UNL1        0.0224
      8 C         145.3965  142.6633  157.9534 C.ar    1  UNL1        0.0239
      9 C         145.5376  141.5879  156.9174 C.ar    1  UNL1        0.1189
     10 C         144.7932  140.2948  157.0724 C.ar    1  UNL1        0.2416
     11 N         143.9077  140.0772  158.2634 N.ar    1  UNL1       -0.2089
     12 N         146.4230  141.8055  155.7263 N.ar    1  UNL1       -0.2826
     13 C         145.9646  142.0138  154.3133 C.ar    1  UNL1        0.1826
     14 N         147.1806  142.1900  153.4528 N.ar    1  UNL1       -0.2280
     15 C         148.3904  142.0906  154.3341 C.ar    1  UNL1        0.0786
     16 C         149.8179  142.2082  153.8883 C.3     1  UNL1        0.0538
     17 C         147.9222  141.8529  155.7392 C.ar    1  UNL1        0.0963
     18 O         144.9342  139.2194  156.0362 O.3     1  UNL1       -0.4551
     19 C         143.7640  138.3431  155.7006 C.3     1  UNL1        0.2543
     20 N         141.4712  138.9536  163.5156 N.pl3   1  UNL1       -0.2786
     21 H         141.0074  138.1140  163.2938 H       1  UNL1        0.1555
     22 N         143.2094  139.3808  165.5009 N.ar    1  UNL1       -0.2383
     23 N         143.0933  139.6981  166.9623 N.ar    1  UNL1       -0.1729
     24 C         141.6351  139.7754  167.3055 C.ar    1  UNL1        0.0766
     25 C         140.8500  139.5059  166.0561 C.ar    1  UNL1        0.0241
     26 C         141.8229  139.2620  164.9408 C.ar    1  UNL1        0.1275
     27 C         139.3918  139.5832  166.3993 C.3     1  UNL1        0.0267
     28 C         138.2502  139.3791  165.4480 C.3     1  UNL1        0.0048
     29 C         139.2758  139.9005  167.8607 C.3     1  UNL1        0.0101
     30 C         140.6621  140.0192  168.4208 C.3     1  UNL1        0.0372
     31 C         139.9478  140.3002  169.7095 C.3     1  UNL1        0.0060
     32 C         141.8992  140.1967  169.2503 C.3     1  UNL1        0.0060
     33 C         145.1469  140.4027  164.1039 C.3     1  UNL1        0.0285
     34 C         144.4875  139.2119  164.7341 C.3     1  UNL1        0.1289
@<TRIPOS>BOND
     1    33    34    1
     2    34    22    1
     3    22    23   ar
     4    23    24   ar
     5    24    25   ar
     6    25    26   ar
     7    26    20    1
     8    20     1    1
     9     1     2   ar
    10     2     3   ar
    11     3     6    1
    12     6     7   ar
    13     7     8   ar
    14     8     9   ar
    15     9    12    1
    16    12    13   ar
    17    13    14   ar
    18    14    15   ar
    19    15    16    1
    20    15    17   ar
    21     9    10   ar
    22    10    18    1
    23    18    19    1
    24    10    11   ar
    25     3     4   ar
    26     4     5   ar
    27    25    27    1
    28    27    28    1
    29    27    29    1
    30    29    30    1
    31    30    31    1
    32    30    32    1
    33    26    22   ar
    34     5     1   ar
    35    30    24    1
    36    11     6   ar
    37    17    12   ar
    38    20    21    1
@<TRIPOS>MOLECULE
*****
 34 38 0 0 0
SMALL
GASTEIGER

@<TRIPOS>ATOM
      1 C         142.7038  136.9589  157.1420 C.ar    1  UNL1        0.1646
      2 N         143.1926  136.9263  158.5598 N.ar    1  UNL1       -0.2224
      3 C         142.3035  137.8159  159.3772 C.ar    1  UNL1        0.1074
      4 C         141.2653  138.3984  158.4646 C.ar    1  UNL1        0.0588
      5 S         141.5126  137.8688  157.0833 S.2     1  UNL1       -0.0508
      6 C         142.4304  138.0772  160.8488 C.ar    1  UNL1        0.1026
      7 C         143.6826  138.6964  161.3953 C.ar    1  UNL1        0.0224
      8 C         143.8095  138.9577  162.8670 C.ar    1  UNL1        0.0239
      9 C         142.6843  138.5998  163.7920 C.ar    1  UNL1        0.1189
     10 C         141.4321  137.9806  163.2455 C.ar    1  UNL1        0.2416
     11 N         141.3052  137.7193  161.7739 N.ar    1  UNL1       -0.2089
     12 N         142.8112  138.8611  165.2636 N.ar    1  UNL1       -0.2826
     13 C         143.5459  138.0036  166.2512 C.ar    1  UNL1        0.1826
     14 N         143.4145  138.6383  167.6039 N.ar    1  UNL1       -0.2280
     15 C         142.5987  139.8879  167.4524 C.ar    1  UNL1        0.0786
     16 C         142.2218  140.8338  168.5540 C.3     1  UNL1        0.0538
     17 C         142.2258  140.0256  166.0060 C.ar    1  UNL1        0.0963
     18 O         140.3069  137.6226  164.1705 O.3     1  UNL1       -0.4551
     19 C         138.8909  137.6550  163.6768 C.3     1  UNL1        0.2543
     20 N         143.3013  136.2128  155.9860 N.pl3   1  UNL1       -0.2786
     21 H         144.1448  136.5222  155.5835 H       1  UNL1        0.1555
     22 N         141.6178  134.9713  154.3218 N.ar    1  UNL1       -0.2383
     23 N         141.1898  133.5490  154.1122 N.ar    1  UNL1       -0.1729
     24 C         141.9210  132.6939  155.1043 C.ar    1  UNL1        0.0766
     25 C         142.8010  133.5877  155.9269 C.ar    1  UNL1        0.0241
     26 C         142.6136  134.9952  155.4433 C.ar    1  UNL1        0.1275
     27 C         143.5322  132.7325  156.9190 C.3     1  UNL1        0.0267
     28 C         144.5183  133.2150  157.9411 C.3     1  UNL1        0.0048
     29 C         143.1041  131.3103  156.7094 C.3     1  UNL1        0.0101
     30 C         142.1084  131.2864  155.5879 C.3     1  UNL1        0.0372
     31 C         142.0866  129.8094  155.8484 C.3     1  UNL1        0.0060
     32 C         141.1081  130.9537  154.5208 C.3     1  UNL1        0.0060
     33 C         139.8621  136.8484  153.9424 C.3     1  UNL1        0.0285
     34 C         141.1349  136.1608  153.5460 C.3     1  UNL1        0.1289
@<TRIPOS>BOND
     1    33    34    1
     2    34    22    1
     3    22    23   ar
     4    23    24   ar
     5    24    25   ar
     6    25    26   ar
     7    26    20    1
     8    20     1    1
     9     1     2   ar
    10     2     3   ar
    11     3     6    1
    12     6     7   ar
    13     7     8   ar
    14     8     9   ar
    15     9    12    1
    16    12    13   ar
    17    13    14   ar
    18    14    15   ar
    19    15    16    1
    20    15    17   ar
    21     9    10   ar
    22    10    18    1
    23    18    19    1
    24    10    11   ar
    25     3     4   ar
    26     4     5   ar
    27    25    27    1
    28    27    28    1
    29    27    29    1
    30    29    30    1
    31    30    31    1
    32    30    32    1
    33    26    22   ar
    34     5     1   ar
    35    30    24    1
    36    11     6   ar
    37    17    12   ar
    38    20    21    1
@<TRIPOS>MOLECULE
*****
 34 38 0 0 0
SMALL
GASTEIGER

@<TRIPOS>ATOM
      1 C         142.5808  137.6387  157.8052 C.ar    1  UNL1        0.1646
      2 N         143.0487  137.6026  159.2299 N.ar    1  UNL1       -0.2224
      3 C         142.0205  138.2964  160.0733 C.ar    1  UNL1        0.1074
      4 C         140.9171  138.7613  159.1698 C.ar    1  UNL1        0.0588
      5 S         141.2633  138.3549  157.7682 S.2     1  UNL1       -0.0508
      6 C         142.0845  138.4910  161.5592 C.ar    1  UNL1        0.1026
      7 C         141.2990  137.5924  162.4678 C.ar    1  UNL1        0.0224
      8 C         141.3630  137.7871  163.9538 C.ar    1  UNL1        0.0239
      9 C         142.2124  138.8803  164.5311 C.ar    1  UNL1        0.1189
     10 C         142.9978  139.7789  163.6225 C.ar    1  UNL1        0.2416
     11 N         142.9339  139.5843  162.1365 N.ar    1  UNL1       -0.2089
     12 N         142.2763  139.0750  166.0171 N.ar    1  UNL1       -0.2826
     13 C         143.3574  138.5708  166.9266 C.ar    1  UNL1        0.1826
     14 N         143.0197  138.9922  168.3260 N.ar    1  UNL1       -0.2280
     15 C         141.7299  139.7568  168.2813 C.ar    1  UNL1        0.0786
     16 C         141.0236  140.3637  169.4573 C.3     1  UNL1        0.0538
     17 C         141.2705  139.8080  166.8543 C.ar    1  UNL1        0.0963
     18 O         143.8473  140.8722  164.1998 O.3     1  UNL1       -0.4551
     19 C         145.3361  140.8394  164.0201 C.3     1  UNL1        0.2543
     20 N         143.3035  137.0603  156.6249 N.pl3   1  UNL1       -0.2786
     21 H         144.2045  137.3822  156.3932 H       1  UNL1        0.1555
     22 N         141.8661  136.2069  154.5390 N.ar    1  UNL1       -0.2383
     23 N         141.4025  134.8678  154.0472 N.ar    1  UNL1       -0.1729
     24 C         141.9031  133.8246  155.0017 C.ar    1  UNL1        0.0766
     25 C         142.6761  134.5189  156.0835 C.ar    1  UNL1        0.0241
     26 C         142.6533  135.9913  155.7975 C.ar    1  UNL1        0.1275
     27 C         143.1767  133.4757  157.0380 C.3     1  UNL1        0.0267
     28 C         143.9970  133.7274  158.2684 C.3     1  UNL1        0.0048
     29 C         142.7131  132.1367  156.5462 C.3     1  UNL1        0.0101
     30 C         141.9259  132.3523  155.2877 C.3     1  UNL1        0.0372
     31 C         141.7777  130.8599  155.3116 C.3     1  UNL1        0.0060
     32 C         141.1078  132.2559  154.0342 C.3     1  UNL1        0.0060
     33 C         142.1122  137.8088  152.5084 C.3     1  UNL1        0.0285
     34 C         141.5910  137.5294  153.8868 C.3     1  UNL1        0.1289
@<TRIPOS>BOND
     1    33    34    1
     2    34    22    1
     3    22    23   ar
     4    23    24   ar
     5    24    25   ar
     6    25    26   ar
     7    26    20    1
     8    20     1    1
     9     1     2   ar
    10     2     3   ar
    11     3     6    1
    12     6     7   ar
    13     7     8   ar
    14     8     9   ar
    15     9    12    1
    16    12    13   ar
    17    13    14   ar
    18    14    15   ar
    19    15    16    1
    20    15    17   ar
    21     9    10   ar
    22    10    18    1
    23    18    19    1
    24    10    11   ar
    25     3     4   ar
    26     4     5   ar
    27    25    27    1
    28    27    28    1
    29    27    29    1
    30    29    30    1
    31    30    31    1
    32    30    32    1
    33    26    22   ar
    34     5     1   ar
    35    30    24    1
    36    11     6   ar
    37    17    12   ar
    38    20    21    1
@<TRIPOS>MOLECULE
*****
 34 38 0 0 0
SMALL
GASTEIGER

@<TRIPOS>ATOM
      1 C         140.0582  140.6771  161.8931 C.ar    1  UNL1        0.1646
      2 N         139.7073  139.8653  160.6815 N.ar    1  UNL1       -0.2224
      3 C         140.9829  139.3527  160.0816 C.ar    1  UNL1        0.1074
      4 C         142.1222  139.8476  160.9224 C.ar    1  UNL1        0.0588
      5 S         141.5508  140.6661  162.0419 S.2     1  UNL1       -0.0508
      6 C         141.0988  138.4956  158.8561 C.ar    1  UNL1        0.1026
      7 C         142.4355  137.9548  158.4428 C.ar    1  UNL1        0.0224
      8 C         142.5514  137.0976  157.2172 C.ar    1  UNL1        0.0239
      9 C         141.3307  136.7813  156.4050 C.ar    1  UNL1        0.1189
     10 C         139.9940  137.3222  156.8183 C.ar    1  UNL1        0.2416
     11 N         139.8781  138.1793  158.0439 N.ar    1  UNL1       -0.2089
     12 N         141.4467  135.9242  155.1795 N.ar    1  UNL1       -0.2826
     13 C         141.6926  136.4121  153.7825 C.ar    1  UNL1        0.1826
     14 N         141.7350  135.2182  152.8754 N.ar    1  UNL1       -0.2280
     15 C         141.5152  133.9925  153.7118 C.ar    1  UNL1        0.0786
     16 C         141.4798  132.5787  153.2118 C.3     1  UNL1        0.0538
     17 C         141.3370  134.4289  155.1358 C.ar    1  UNL1        0.0963
     18 O         138.7732  137.0058  156.0061 O.3     1  UNL1       -0.4551
     19 C         138.3923  137.8842  154.8514 C.3     1  UNL1        0.2543
     20 N         139.0871  141.3769  162.7971 N.pl3   1  UNL1       -0.2786
     21 H         138.1598  141.5263  162.5020 H       1  UNL1        0.1555
     22 N         140.0831  143.2049  164.4738 N.ar    1  UNL1       -0.2383
     23 N         140.3906  143.2421  165.9414 N.ar    1  UNL1       -0.1729
     24 C         140.0263  141.9093  166.5253 C.ar    1  UNL1        0.0766
     25 C         139.4936  141.0484  165.4185 C.ar    1  UNL1        0.0241
     26 C         139.5288  141.8491  164.1506 C.ar    1  UNL1        0.1275
     27 C         139.1293  139.7156  166.0024 C.3     1  UNL1        0.0267
     28 C         138.5578  138.5502  165.2505 C.3     1  UNL1        0.0048
     29 C         139.4368  139.7528  167.4700 C.3     1  UNL1        0.0101
     30 C         139.9912  141.1085  167.7932 C.3     1  UNL1        0.0372
     31 C         140.0756  140.5676  169.1897 C.3     1  UNL1        0.0060
     32 C         140.5632  142.3512  168.4084 C.3     1  UNL1        0.0060
     33 C         141.5705  145.1124  163.5256 C.3     1  UNL1        0.0285
     34 C         140.2931  144.3266  163.5002 C.3     1  UNL1        0.1289
@<TRIPOS>BOND
     1    33    34    1
     2    34    22    1
     3    22    23   ar
     4    23    24   ar
     5    24    25   ar
     6    25    26   ar
     7    26    20    1
     8    20     1    1
     9     1     2   ar
    10     2     3   ar
    11     3     6    1
    12     6     7   ar
    13     7     8   ar
    14     8     9   ar
    15     9    12    1
    16    12    13   ar
    17    13    14   ar
    18    14    15   ar
    19    15    16    1
    20    15    17   ar
    21     9    10   ar
    22    10    18    1
    23    18    19    1
    24    10    11   ar
    25     3     4   ar
    26     4     5   ar
    27    25    27    1
    28    27    28    1
    29    27    29    1
    30    29    30    1
    31    30    31    1
    32    30    32    1
    33    26    22   ar
    34     5     1   ar
    35    30    24    1
    36    11     6   ar
    37    17    12   ar
    38    20    21    1
@<TRIPOS>MOLECULE
*****
 34 38 0 0 0
SMALL
GASTEIGER

@<TRIPOS>ATOM
      1 C         139.6073  139.8014  162.8243 C.ar    1  UNL1        0.1646
      2 N         140.2702  140.6454  161.7762 N.ar    1  UNL1       -0.2224
      3 C         139.2000  141.3955  161.0399 C.ar    1  UNL1        0.1074
      4 C         137.8758  141.0151  161.6329 C.ar    1  UNL1        0.0588
      5 S         138.1274  140.0300  162.7356 S.2     1  UNL1       -0.0508
      6 C         139.4162  142.3571  159.9092 C.ar    1  UNL1        0.1026
      7 C         140.2948  143.5572  160.1030 C.ar    1  UNL1        0.0224
      8 C         140.5110  144.5189  158.9721 C.ar    1  UNL1        0.0239
      9 C         139.8486  144.2804  157.6477 C.ar    1  UNL1        0.1189
     10 C         138.9699  143.0801  157.4540 C.ar    1  UNL1        0.2416
     11 N         138.7537  142.1185  158.5847 N.ar    1  UNL1       -0.2089
     12 N         140.0648  145.2420  156.5170 N.ar    1  UNL1       -0.2826
     13 C         140.9496  145.0184  155.3265 C.ar    1  UNL1        0.1826
     14 N         140.8658  146.2342  154.4519 N.ar    1  UNL1       -0.2280
     15 C         139.9292  147.2091  155.1020 C.ar    1  UNL1        0.0786
     16 C         139.5536  148.5601  154.5692 C.3     1  UNL1        0.0538
     17 C         139.4342  146.5958  156.3783 C.ar    1  UNL1        0.0963
     18 O         138.3074  142.8415  156.1295 O.3     1  UNL1       -0.4551
     19 C         136.9711  143.4570  155.8376 C.3     1  UNL1        0.2543
     20 N         140.3023  138.8892  163.7911 N.pl3   1  UNL1       -0.2786
     21 H         140.3048  137.9170  163.6357 H       1  UNL1        0.1555
     22 N         142.4158  139.9301  165.0537 N.ar    1  UNL1       -0.2383
     23 N         142.6848  140.4186  166.4462 N.ar    1  UNL1       -0.1729
     24 C         141.4285  140.2484  167.2479 C.ar    1  UNL1        0.0766
     25 C         140.3830  139.6547  166.3509 C.ar    1  UNL1        0.0241
     26 C         140.9933  139.4581  164.9948 C.ar    1  UNL1        0.1275
     27 C         139.1267  139.4845  167.1526 C.3     1  UNL1        0.0267
     28 C         137.8292  138.9242  166.6499 C.3     1  UNL1        0.0048
     29 C         139.3957  139.9730  168.5450 C.3     1  UNL1        0.0101
     30 C         140.8182  140.4451  168.6040 C.3     1  UNL1        0.0372
     31 C         140.4911  140.7540  170.0349 C.3     1  UNL1        0.0060
     32 C         142.1724  140.9817  168.9620 C.3     1  UNL1        0.0060
     33 C         144.8286  139.5448  164.1704 C.3     1  UNL1        0.0285
     34 C         143.3971  139.9162  163.9193 C.3     1  UNL1        0.1289
@<TRIPOS>BOND
     1    33    34    1
     2    34    22    1
     3    22    23   ar
     4    23    24   ar
     5    24    25   ar
     6    25    26   ar
     7    26    20    1
     8    20     1    1
     9     1     2   ar
    10     2     3   ar
    11     3     6    1
    12     6     7   ar
    13     7     8   ar
    14     8     9   ar
    15     9    12    1
    16    12    13   ar
    17    13    14   ar
    18    14    15   ar
    19    15    16    1
    20    15    17   ar
    21     9    10   ar
    22    10    18    1
    23    18    19    1
    24    10    11   ar
    25     3     4   ar
    26     4     5   ar
    27    25    27    1
    28    27    28    1
    29    27    29    1
    30    29    30    1
    31    30    31    1
    32    30    32    1
    33    26    22   ar
    34     5     1   ar
    35    30    24    1
    36    11     6   ar
    37    17    12   ar
    38    20    21    1
@<TRIPOS>MOLECULE
*****
 34 38 0 0 0
SMALL
GASTEIGER

@<TRIPOS>ATOM
      1 C         141.0345  140.9336  161.6652 C.ar    1  UNL1        0.1646
      2 N         141.7885  141.6506  160.5847 N.ar    1  UNL1       -0.2224
      3 C         142.8104  140.7048  160.0267 C.ar    1  UNL1        0.1074
      4 C         142.6879  139.4034  160.7624 C.ar    1  UNL1        0.0588
      5 S         141.5904  139.5447  161.7750 S.2     1  UNL1       -0.0508
      6 C         143.7838  141.0075  158.9263 C.ar    1  UNL1        0.1026
      7 C         144.4878  142.3315  158.8909 C.ar    1  UNL1        0.0224
      8 C         145.4613  142.6341  157.7904 C.ar    1  UNL1        0.0239
      9 C         145.7306  141.6127  156.7255 C.ar    1  UNL1        0.1189
     10 C         145.0265  140.2887  156.7609 C.ar    1  UNL1        0.2416
     11 N         144.0531  139.9860  157.8613 N.ar    1  UNL1       -0.2089
     12 N         146.7040  141.9153  155.6251 N.ar    1  UNL1       -0.2826
     13 C         146.3533  142.3436  154.2309 C.ar    1  UNL1        0.1826
     14 N         147.6316  142.5358  153.4698 N.ar    1  UNL1       -0.2280
     15 C         148.7721  142.2263  154.3937 C.ar    1  UNL1        0.0786
     16 C         150.2301  142.2893  154.0463 C.3     1  UNL1        0.0538
     17 C         148.1988  141.8429  155.7257 C.ar    1  UNL1        0.0963
     18 O         145.2958  139.2673  155.6959 O.3     1  UNL1       -0.4551
     19 C         144.2581  138.2354  155.3667 C.3     1  UNL1        0.2543
     20 N         139.9203  141.5052  162.4909 N.pl3   1  UNL1       -0.2786
     21 H         139.0328  141.6474  162.0891 H       1  UNL1        0.1555
     22 N         140.7704  143.1332  164.4331 N.ar    1  UNL1       -0.2383
     23 N         140.8162  143.0640  165.9307 N.ar    1  UNL1       -0.1729
     24 C         140.2323  141.7481  166.3521 C.ar    1  UNL1        0.0766
     25 C         139.8256  141.0040  165.1148 C.ar    1  UNL1        0.0241
     26 C         140.1582  141.8600  163.9288 C.ar    1  UNL1        0.1275
     27 C         139.2417  139.6881  165.5362 C.3     1  UNL1        0.0267
     28 C         138.7061  138.6276  164.6206 C.3     1  UNL1        0.0048
     29 C         139.2875  139.6191  167.0339 C.3     1  UNL1        0.0101
     30 C         139.8997  140.8921  167.5382 C.3     1  UNL1        0.0372
     31 C         139.6858  140.2754  168.8886 C.3     1  UNL1        0.0060
     32 C         140.4672  142.0363  168.3248 C.3     1  UNL1        0.0060
     33 C         142.6337  144.8244  163.7867 C.3     1  UNL1        0.0285
     34 C         141.2522  144.2750  163.5880 C.3     1  UNL1        0.1289
@<TRIPOS>BOND
     1    33    34    1
     2    34    22    1
     3    22    23   ar
     4    23    24   ar
     5    24    25   ar
     6    25    26   ar
     7    26    20    1
     8    20     1    1
     9     1     2   ar
    10     2     3   ar
    11     3     6    1
    12     6     7   ar
    13     7     8   ar
    14     8     9   ar
    15     9    12    1
    16    12    13   ar
    17    13    14   ar
    18    14    15   ar
    19    15    16    1
    20    15    17   ar
    21     9    10   ar
    22    10    18    1
    23    18    19    1
    24    10    11   ar
    25     3     4   ar
    26     4     5   ar
    27    25    27    1
    28    27    28    1
    29    27    29    1
    30    29    30    1
    31    30    31    1
    32    30    32    1
    33    26    22   ar
    34     5     1   ar
    35    30    24    1
    36    11     6   ar
    37    17    12   ar
    38    20    21    1
