@<TRIPOS>MOLECULE
*****
 20 21 0 0 0
SMALL
GASTEIGER

@<TRIPOS>ATOM
      1 C         142.8598  141.3960  166.2973 C.3     1  UNL1        0.0891
      2 C         143.0226  139.9471  166.6495 C.3     1  UNL1        0.0149
      3 C         143.1708  140.3939  165.2253 C.3     1  UNL1        0.0282
      4 C         142.7976  142.6480  165.4733 C.ar    1  UNL1       -0.0146
      5 C         144.0580  143.3894  165.1393 C.ar    1  UNL1       -0.0038
      6 C         143.9957  144.6413  164.3154 C.ar    1  UNL1       -0.0003
      7 C         142.6730  145.1518  163.8256 C.ar    1  UNL1       -0.0000
      8 C         141.4126  144.4103  164.1596 C.ar    1  UNL1       -0.0003
      9 C         141.4749  143.1584  164.9835 C.ar    1  UNL1       -0.0038
     10 C         143.4359  140.0733  163.7841 C.3     1  UNL1        0.0659
     11 N         144.7810  139.5576  163.3657 N.3     1  UNL1       -0.3211
     12 H         145.4835  140.2827  163.5115 H       1  UNL1        0.1189
     13 H         144.7553  139.3026  162.3785 H       1  UNL1        0.1189
     14 N         141.1997  141.8263  168.2489 N.am    1  UNL1       -0.2793
     15 C         142.5705  141.9634  167.6553 C.2     1  UNL1        0.2285
     16 O         143.6517  142.6679  168.4198 O.2     1  UNL1       -0.2746
     17 C         140.4709  143.8212  169.7452 C.3     1  UNL1        0.0233
     18 C         140.9103  142.3936  169.6069 C.3     1  UNL1        0.0935
     19 C         140.1184  141.1218  167.4843 C.3     1  UNL1        0.0935
     20 C         139.4287  139.9325  168.0842 C.3     1  UNL1        0.0233
@<TRIPOS>BOND
     1    17    18    1
     2    18    14    1
     3    14    19    1
     4    19    20    1
     5    14    15   am
     6    15    16    2
     7     1    15    1
     8     1     4    1
     9     4     5   ar
    10     5     6   ar
    11     6     7   ar
    12     7     8   ar
    13     8     9   ar
    14     1     2    1
    15     2     3    1
    16     3    10    1
    17    10    11    1
    18     3     1    1
    19     9     4   ar
    20    11    12    1
    21    11    13    1
@<TRIPOS>MOLECULE
*****
 20 21 0 0 0
SMALL
GASTEIGER

@<TRIPOS>ATOM
      1 C         138.9098  139.7662  166.1429 C.3     1  UNL1        0.0891
      2 C         137.9264  138.8848  166.8542 C.3     1  UNL1        0.0149
      3 C         138.9004  139.7100  167.6419 C.3     1  UNL1        0.0282
      4 C         140.0244  140.7464  165.9260 C.ar    1  UNL1       -0.0146
      5 C         139.7184  142.2055  165.7607 C.ar    1  UNL1       -0.0038
      6 C         140.8330  143.1856  165.5438 C.ar    1  UNL1       -0.0003
      7 C         142.2535  142.7066  165.4921 C.ar    1  UNL1       -0.0000
      8 C         142.5595  141.2475  165.6574 C.ar    1  UNL1       -0.0003
      9 C         141.4449  140.2674  165.8743 C.ar    1  UNL1       -0.0038
     10 C         139.4573  140.1541  168.9620 C.3     1  UNL1        0.0659
     11 N         138.6206  140.0489  170.2025 N.3     1  UNL1       -0.3211
     12 H         137.8250  140.6831  170.1308 H       1  UNL1        0.1189
     13 H         139.1838  140.3005  171.0148 H       1  UNL1        0.1189
     14 N         139.0105  138.2261  164.0530 N.am    1  UNL1       -0.2793
     15 C         138.5322  139.4820  164.7193 C.2     1  UNL1        0.2285
     16 O         137.6764  140.4536  163.9621 O.2     1  UNL1       -0.2746
     17 C         139.5056  138.4284  161.5105 C.3     1  UNL1        0.0233
     18 C         138.6329  137.9419  162.6294 C.3     1  UNL1        0.0935
     19 C         139.8663  137.2545  164.8103 C.3     1  UNL1        0.0935
     20 C         141.2782  136.9992  164.3726 C.3     1  UNL1        0.0233
@<TRIPOS>BOND
     1    17    18    1
     2    18    14    1
     3    14    19    1
     4    19    20    1
     5    14    15   am
     6    15    16    2
     7     1    15    1
     8     1     4    1
     9     4     5   ar
    10     5     6   ar
    11     6     7   ar
    12     7     8   ar
    13     8     9   ar
    14     1     2    1
    15     2     3    1
    16     3    10    1
    17    10    11    1
    18     3     1    1
    19     9     4   ar
    20    11    12    1
    21    11    13    1
@<TRIPOS>MOLECULE
*****
 20 21 0 0 0
SMALL
GASTEIGER

@<TRIPOS>ATOM
      1 C         139.5291  138.9626  164.5294 C.3     1  UNL1        0.0891
      2 C         139.6999  137.5371  164.9639 C.3     1  UNL1        0.0149
      3 C         138.7459  138.4348  165.6948 C.3     1  UNL1        0.0282
      4 C         139.0256  140.3752  164.4955 C.ar    1  UNL1       -0.0146
      5 C         137.8631  140.7363  163.6190 C.ar    1  UNL1       -0.0038
      6 C         137.3596  142.1488  163.5851 C.ar    1  UNL1       -0.0003
      7 C         138.0186  143.2003  164.4277 C.ar    1  UNL1       -0.0000
      8 C         139.1811  142.8393  165.3042 C.ar    1  UNL1       -0.0003
      9 C         139.6846  141.4268  165.3381 C.ar    1  UNL1       -0.0038
     10 C         137.7430  138.6485  166.7895 C.3     1  UNL1        0.0659
     11 N         136.9747  137.4838  167.3405 N.3     1  UNL1       -0.3211
     12 H         136.3608  137.1088  166.6173 H       1  UNL1        0.1189
     13 H         136.4149  137.7914  168.1357 H       1  UNL1        0.1189
     14 N         141.9446  139.2575  163.6194 N.am    1  UNL1       -0.2793
     15 C         140.4871  138.9999  163.3758 C.2     1  UNL1        0.2285
     16 O         139.9876  138.7797  161.9786 O.2     1  UNL1       -0.2746
     17 C         143.4831  138.0190  161.9313 C.3     1  UNL1        0.0233
     18 C         142.9027  139.2948  162.4658 C.3     1  UNL1        0.0935
     19 C         142.4440  139.4777  165.0165 C.3     1  UNL1        0.0935
     20 C         143.2052  138.3937  165.7205 C.3     1  UNL1        0.0233
@<TRIPOS>BOND
     1    17    18    1
     2    18    14    1
     3    14    19    1
     4    19    20    1
     5    14    15   am
     6    15    16    2
     7     1    15    1
     8     1     4    1
     9     4     5   ar
    10     5     6   ar
    11     6     7   ar
    12     7     8   ar
    13     8     9   ar
    14     1     2    1
    15     2     3    1
    16     3    10    1
    17    10    11    1
    18     3     1    1
    19     9     4   ar
    20    11    12    1
    21    11    13    1
@<TRIPOS>MOLECULE
*****
 20 21 0 0 0
SMALL
GASTEIGER

@<TRIPOS>ATOM
      1 C         142.0728  140.1836  167.6258 C.3     1  UNL1        0.0891
      2 C         142.9085  139.0353  167.1429 C.3     1  UNL1        0.0149
      3 C         142.6277  139.1947  168.6078 C.3     1  UNL1        0.0282
      4 C         141.3417  141.0989  168.5627 C.ar    1  UNL1       -0.0146
      5 C         140.0260  140.6784  169.1476 C.ar    1  UNL1       -0.0038
      6 C         139.2949  141.5937  170.0844 C.ar    1  UNL1       -0.0003
      7 C         139.8795  142.9295  170.4364 C.ar    1  UNL1       -0.0000
      8 C         141.1952  143.3500  169.8515 C.ar    1  UNL1       -0.0003
      9 C         141.9262  142.4347  168.9146 C.ar    1  UNL1       -0.0038
     10 C         142.7858  138.7159  170.0205 C.3     1  UNL1        0.0659
     11 N         143.4548  139.5912  171.0385 N.3     1  UNL1       -0.3211
     12 H         144.4362  139.7141  170.7890 H       1  UNL1        0.1189
     13 H         143.3899  139.1542  171.9579 H       1  UNL1        0.1189
     14 N         140.6246  140.3784  165.4776 N.am    1  UNL1       -0.2793
     15 C         141.7719  140.8547  166.3185 C.2     1  UNL1        0.2285
     16 O         142.6181  142.0019  165.8520 O.2     1  UNL1       -0.2746
     17 C         141.0242  140.6053  162.9205 C.3     1  UNL1        0.0233
     18 C         140.3236  141.0494  164.1703 C.3     1  UNL1        0.0935
     19 C         139.7784  139.2311  165.9442 C.3     1  UNL1        0.0935
     20 C         138.2908  139.3912  166.0509 C.3     1  UNL1        0.0233
@<TRIPOS>BOND
     1    17    18    1
     2    18    14    1
     3    14    19    1
     4    19    20    1
     5    14    15   am
     6    15    16    2
     7     1    15    1
     8     1     4    1
     9     4     5   ar
    10     5     6   ar
    11     6     7   ar
    12     7     8   ar
    13     8     9   ar
    14     1     2    1
    15     2     3    1
    16     3    10    1
    17    10    11    1
    18     3     1    1
    19     9     4   ar
    20    11    12    1
    21    11    13    1
@<TRIPOS>MOLECULE
*****
 20 21 0 0 0
SMALL
GASTEIGER

@<TRIPOS>ATOM
      1 C         139.6875  139.1934  165.1368 C.3     1  UNL1        0.0891
      2 C         139.0208  137.9462  164.6370 C.3     1  UNL1        0.0149
      3 C         138.5528  138.5885  165.9092 C.3     1  UNL1        0.0282
      4 C         139.9977  140.3729  166.0102 C.ar    1  UNL1       -0.0146
      5 C         139.7227  141.7631  165.5186 C.ar    1  UNL1       -0.0038
      6 C         140.0328  142.9425  166.3920 C.ar    1  UNL1       -0.0003
      7 C         140.6180  142.7316  167.7570 C.ar    1  UNL1       -0.0000
      8 C         140.8930  141.3415  168.2486 C.ar    1  UNL1       -0.0003
      9 C         140.5828  140.1621  167.3752 C.ar    1  UNL1       -0.0038
     10 C         137.6276  138.6102  167.0897 C.3     1  UNL1        0.0659
     11 N         136.8514  137.3802  167.4568 N.3     1  UNL1       -0.3211
     12 H         136.1807  137.1684  166.7180 H       1  UNL1        0.1189
     13 H         136.3533  137.5412  168.3322 H       1  UNL1        0.1189
     14 N         142.0821  138.7915  164.2126 N.am    1  UNL1       -0.2793
     15 C         140.7145  139.3888  164.0611 C.2     1  UNL1        0.2285
     16 O         140.3740  140.1814  162.8340 O.2     1  UNL1       -0.2746
     17 C         143.1451  138.0610  161.9572 C.3     1  UNL1        0.0233
     18 C         143.1091  138.9868  163.1370 C.3     1  UNL1        0.0935
     19 C         142.4226  137.9989  165.4397 C.3     1  UNL1        0.0935
     20 C         143.6583  138.3259  166.2248 C.3     1  UNL1        0.0233
@<TRIPOS>BOND
     1    17    18    1
     2    18    14    1
     3    14    19    1
     4    19    20    1
     5    14    15   am
     6    15    16    2
     7     1    15    1
     8     1     4    1
     9     4     5   ar
    10     5     6   ar
    11     6     7   ar
    12     7     8   ar
    13     8     9   ar
    14     1     2    1
    15     2     3    1
    16     3    10    1
    17    10    11    1
    18     3     1    1
    19     9     4   ar
    20    11    12    1
    21    11    13    1
@<TRIPOS>MOLECULE
*****
 20 21 0 0 0
SMALL
GASTEIGER

@<TRIPOS>ATOM
      1 C         139.7828  139.7378  166.0847 C.3     1  UNL1        0.0891
      2 C         139.9397  139.8638  167.5712 C.3     1  UNL1        0.0149
      3 C         138.7167  139.2104  166.9988 C.3     1  UNL1        0.0282
      4 C         139.1833  139.3863  164.7554 C.ar    1  UNL1       -0.0146
      5 C         139.3458  138.0017  164.2019 C.ar    1  UNL1       -0.0038
      6 C         138.7464  137.6502  162.8726 C.ar    1  UNL1       -0.0003
      7 C         137.9844  138.6834  162.0968 C.ar    1  UNL1       -0.0000
      8 C         137.8219  140.0680  162.6502 C.ar    1  UNL1       -0.0003
      9 C         138.4213  140.4195  163.9795 C.ar    1  UNL1       -0.0038
     10 C         137.3953  138.5287  167.1961 C.3     1  UNL1        0.0659
     11 N         137.3133  137.0311  167.1739 N.3     1  UNL1       -0.3211
     12 H         137.5428  136.6918  166.2398 H       1  UNL1        0.1189
     13 H         136.3674  136.7387  167.4191 H       1  UNL1        0.1189
     14 N         141.1915  141.8808  165.6689 N.am    1  UNL1       -0.2793
     15 C         141.0569  140.3873  165.6322 C.2     1  UNL1        0.2285
     16 O         142.1964  139.5434  165.1431 O.2     1  UNL1       -0.2746
     17 C         143.6185  142.6630  166.1669 C.3     1  UNL1        0.0233
     18 C         142.4656  142.5304  165.2164 C.3     1  UNL1        0.0935
     19 C         140.0520  142.7248  166.1580 C.3     1  UNL1        0.0935
     20 C         139.4876  143.8036  165.2818 C.3     1  UNL1        0.0233
@<TRIPOS>BOND
     1    17    18    1
     2    18    14    1
     3    14    19    1
     4    19    20    1
     5    14    15   am
     6    15    16    2
     7     1    15    1
     8     1     4    1
     9     4     5   ar
    10     5     6   ar
    11     6     7   ar
    12     7     8   ar
    13     8     9   ar
    14     1     2    1
    15     2     3    1
    16     3    10    1
    17    10    11    1
    18     3     1    1
    19     9     4   ar
    20    11    12    1
    21    11    13    1
@<TRIPOS>MOLECULE
*****
 20 21 0 0 0
SMALL
GASTEIGER

@<TRIPOS>ATOM
      1 C         140.7182  141.7991  166.2569 C.3     1  UNL1        0.0891
      2 C         140.0154  140.9613  165.2302 C.3     1  UNL1        0.0149
      3 C         139.9254  140.5992  166.6831 C.3     1  UNL1        0.0282
      4 C         141.2044  142.2780  167.5927 C.ar    1  UNL1       -0.0146
      5 C         140.3250  143.1449  168.4442 C.ar    1  UNL1       -0.0038
      6 C         140.8113  143.6238  169.7799 C.ar    1  UNL1       -0.0003
      7 C         142.1769  143.2357  170.2642 C.ar    1  UNL1       -0.0000
      8 C         143.0563  142.3688  169.4127 C.ar    1  UNL1       -0.0003
      9 C         142.5700  141.8899  168.0769 C.ar    1  UNL1       -0.0038
     10 C         139.4157  139.6974  167.7680 C.3     1  UNL1        0.0659
     11 N         138.1264  138.9539  167.5811 N.3     1  UNL1       -0.3211
     12 H         137.3541  139.6187  167.5348 H       1  UNL1        0.1189
     13 H         137.9825  138.3199  168.3671 H       1  UNL1        0.1189
     14 N         140.4958  143.9172  164.7689 N.am    1  UNL1       -0.2793
     15 C         141.3423  142.8327  165.3668 C.2     1  UNL1        0.2285
     16 O         142.8127  142.7819  165.0746 O.2     1  UNL1       -0.2746
     17 C         140.9707  144.8471  162.3899 C.3     1  UNL1        0.0233
     18 C         141.1198  144.9509  163.8789 C.3     1  UNL1        0.0935
     19 C         139.0255  143.9680  165.0611 C.3     1  UNL1        0.0935
     20 C         138.4577  145.1062  165.8563 C.3     1  UNL1        0.0233
@<TRIPOS>BOND
     1    17    18    1
     2    18    14    1
     3    14    19    1
     4    19    20    1
     5    14    15   am
     6    15    16    2
     7     1    15    1
     8     1     4    1
     9     4     5   ar
    10     5     6   ar
    11     6     7   ar
    12     7     8   ar
    13     8     9   ar
    14     1     2    1
    15     2     3    1
    16     3    10    1
    17    10    11    1
    18     3     1    1
    19     9     4   ar
    20    11    12    1
    21    11    13    1
@<TRIPOS>MOLECULE
*****
 20 21 0 0 0
SMALL
GASTEIGER

@<TRIPOS>ATOM
      1 C         139.4147  138.8791  164.7060 C.3     1  UNL1        0.0891
      2 C         139.3056  137.4063  164.9683 C.3     1  UNL1        0.0149
      3 C         138.5708  138.3799  165.8413 C.3     1  UNL1        0.0282
      4 C         139.2054  140.3569  164.8560 C.ar    1  UNL1       -0.0146
      5 C         140.1479  141.1663  165.6966 C.ar    1  UNL1       -0.0038
      6 C         139.9387  142.6440  165.8466 C.ar    1  UNL1       -0.0003
      7 C         138.7869  143.3123  165.1560 C.ar    1  UNL1       -0.0000
      8 C         137.8444  142.5029  164.3155 C.ar    1  UNL1       -0.0003
      9 C         138.0537  141.0252  164.1655 C.ar    1  UNL1       -0.0038
     10 C         137.6594  138.6540  167.0006 C.3     1  UNL1        0.0659
     11 N         136.7827  137.5626  167.5396 N.3     1  UNL1       -0.3211
     12 H         136.0910  137.3035  166.8362 H       1  UNL1        0.1189
     13 H         136.3066  137.8924  168.3793 H       1  UNL1        0.1189
     14 N         139.7870  138.5591  162.1547 N.am    1  UNL1       -0.2793
     15 C         140.3312  138.8652  163.5187 C.2     1  UNL1        0.2285
     16 O         141.7919  139.1572  163.6951 O.2     1  UNL1       -0.2746
     17 C         141.0787  139.8322  160.2944 C.3     1  UNL1        0.0233
     18 C         140.7034  138.5452  160.9674 C.3     1  UNL1        0.0935
     19 C         138.3263  138.2671  161.9783 C.3     1  UNL1        0.0935
     20 C         137.4819  139.1588  161.1168 C.3     1  UNL1        0.0233
@<TRIPOS>BOND
     1    17    18    1
     2    18    14    1
     3    14    19    1
     4    19    20    1
     5    14    15   am
     6    15    16    2
     7     1    15    1
     8     1     4    1
     9     4     5   ar
    10     5     6   ar
    11     6     7   ar
    12     7     8   ar
    13     8     9   ar
    14     1     2    1
    15     2     3    1
    16     3    10    1
    17    10    11    1
    18     3     1    1
    19     9     4   ar
    20    11    12    1
    21    11    13    1
@<TRIPOS>MOLECULE
*****
 20 21 0 0 0
SMALL
GASTEIGER

@<TRIPOS>ATOM
      1 C         140.3211  140.8457  167.5790 C.3     1  UNL1        0.0891
      2 C         139.2235  139.9554  167.0763 C.3     1  UNL1        0.0149
      3 C         139.3681  140.2101  168.5475 C.3     1  UNL1        0.0282
      4 C         141.1930  141.6070  168.5331 C.ar    1  UNL1       -0.0146
      5 C         140.6934  142.8772  169.1553 C.ar    1  UNL1       -0.0038
      6 C         141.5653  143.6385  170.1093 C.ar    1  UNL1       -0.0003
      7 C         142.9368  143.1296  170.4412 C.ar    1  UNL1       -0.0000
      8 C         143.4364  141.8595  169.8190 C.ar    1  UNL1       -0.0003
      9 C         142.5645  141.0982  168.8650 C.ar    1  UNL1       -0.0038
     10 C         138.9015  139.9903  169.9560 C.3     1  UNL1        0.0659
     11 N         139.8723  139.5353  171.0052 N.3     1  UNL1       -0.3211
     12 H         140.1959  138.5937  170.7836 H       1  UNL1        0.1189
     13 H         139.4119  139.5312  171.9154 H       1  UNL1        0.1189
     14 N         141.8649  140.2353  165.5805 N.am    1  UNL1       -0.2793
     15 C         140.9714  141.2168  166.2793 C.2     1  UNL1        0.2285
     16 O         140.7282  142.5695  165.6782 O.2     1  UNL1       -0.2746
     17 C         141.8090  140.3373  162.9850 C.3     1  UNL1        0.0233
     18 C         142.5152  140.6064  164.2808 C.3     1  UNL1        0.0935
     19 C         142.1081  138.8827  166.1815 C.3     1  UNL1        0.0935
     20 C         143.5113  138.3864  166.3685 C.3     1  UNL1        0.0233
@<TRIPOS>BOND
     1    17    18    1
     2    18    14    1
     3    14    19    1
     4    19    20    1
     5    14    15   am
     6    15    16    2
     7     1    15    1
     8     1     4    1
     9     4     5   ar
    10     5     6   ar
    11     6     7   ar
    12     7     8   ar
    13     8     9   ar
    14     1     2    1
    15     2     3    1
    16     3    10    1
    17    10    11    1
    18     3     1    1
    19     9     4   ar
    20    11    12    1
    21    11    13    1
