@<TRIPOS>MOLECULE
*****
 24 26 0 0 0
SMALL
GASTEIGER

@<TRIPOS>ATOM
      1 C         140.0563  144.4555  161.9667 C.ar    1  UNL1        0.1986
      2 C         139.1565  145.2608  162.8565 C.ar    1  UNL1        0.0454
      3 C         139.4257  144.8566  164.2758 C.ar    1  UNL1        0.0408
      4 C         140.4919  143.8015  164.2630 C.ar    1  UNL1        0.1455
      5 O         140.8816  143.5537  162.8358 O.2     1  UNL1       -0.4489
      6 C         141.0673  143.1149  165.4660 C.ar    1  UNL1        0.0346
      7 C         140.2318  142.9362  166.6988 C.ar    1  UNL1        0.0037
      8 C         140.8072  142.2496  167.9018 C.ar    1  UNL1        0.0104
      9 C         142.2183  141.7416  167.8721 C.ar    1  UNL1        0.0685
     10 C         143.0540  141.9204  166.6393 C.ar    1  UNL1        0.0104
     11 C         142.4784  142.6070  165.4363 C.ar    1  UNL1        0.0037
     12 C         142.7938  141.0550  169.0752 C.1     1  UNL1        0.1004
     13 N         143.3692  140.3683  170.2783 N.1     1  UNL1       -0.1908
     14 N         141.1045  145.4570  159.8106 N.am    1  UNL1       -0.2779
     15 C         140.1196  144.5378  160.4702 C.2     1  UNL1        0.2842
     16 O         139.1981  143.7008  159.6334 O.2     1  UNL1       -0.2665
     17 H         141.7093  146.0063  160.3598 H       1  UNL1        0.1553
     18 C         139.1444  147.1623  155.3106 C.3     1  UNL1        0.0311
     19 C         140.1877  146.3919  156.0642 C.ar    1  UNL1       -0.0206
     20 C         141.2944  145.7037  155.3214 C.ar    1  UNL1       -0.0042
     21 C         142.3377  144.9333  156.0750 C.ar    1  UNL1        0.0010
     22 C         142.2744  144.8510  157.5713 C.ar    1  UNL1        0.0147
     23 C         141.1678  145.5392  158.3141 C.ar    1  UNL1        0.0503
     24 C         140.1245  146.3096  157.5605 C.ar    1  UNL1        0.0104
@<TRIPOS>BOND
     1    18    19    1
     2    19    20   ar
     3    20    21   ar
     4    21    22   ar
     5    22    23   ar
     6    23    14    1
     7    14    15   am
     8    15    16    2
     9    15     1    1
    10     1     2   ar
    11     2     3   ar
    12     3     4   ar
    13     4     6    1
    14     6     7   ar
    15     7     8   ar
    16     8     9   ar
    17     9    12    1
    18    12    13    3
    19     9    10   ar
    20    10    11   ar
    21     4     5   ar
    22    23    24   ar
    23    24    19   ar
    24     5     1   ar
    25    11     6   ar
    26    14    17    1
@<TRIPOS>MOLECULE
*****
 24 26 0 0 0
SMALL
GASTEIGER

@<TRIPOS>ATOM
      1 C         139.6876  139.9694  162.5853 C.ar    1  UNL1        0.1986
      2 C         138.7510  141.1395  162.5245 C.ar    1  UNL1        0.0454
      3 C         138.6686  141.7390  163.8971 C.ar    1  UNL1        0.0408
      4 C         139.5543  140.9393  164.8061 C.ar    1  UNL1        0.1455
      5 O         140.1840  139.8457  163.9953 O.2     1  UNL1       -0.4489
      6 C         139.7719  141.1893  166.2689 C.ar    1  UNL1        0.0346
      7 C         140.3274  142.5040  166.7307 C.ar    1  UNL1        0.0037
      8 C         140.5450  142.7540  168.1935 C.ar    1  UNL1        0.0104
      9 C         140.2072  141.6894  169.1948 C.ar    1  UNL1        0.0685
     10 C         139.6517  140.3747  168.7331 C.ar    1  UNL1        0.0104
     11 C         139.4341  140.1247  167.2702 C.ar    1  UNL1        0.0037
     12 C         140.4249  141.9395  170.6577 C.1     1  UNL1        0.1004
     13 N         140.6425  142.1895  172.1206 N.1     1  UNL1       -0.1908
     14 N         140.5112  139.6797  160.1383 N.am    1  UNL1       -0.2779
     15 C         140.0620  139.0793  161.4374 C.2     1  UNL1        0.2842
     16 O         139.9873  137.5888  161.5887 O.2     1  UNL1       -0.2665
     17 H         140.5603  140.6579  160.0390 H       1  UNL1        0.1553
     18 C         139.1866  137.0975  155.8281 C.3     1  UNL1        0.0311
     19 C         140.2233  137.4985  156.8353 C.ar    1  UNL1       -0.0206
     20 C         141.6343  137.0095  156.6946 C.ar    1  UNL1       -0.0042
     21 C         142.6710  137.4105  157.7019 C.ar    1  UNL1        0.0010
     22 C         142.2966  138.3006  158.8497 C.ar    1  UNL1        0.0147
     23 C         140.8856  138.7896  158.9904 C.ar    1  UNL1        0.0503
     24 C         139.8489  138.3886  157.9831 C.ar    1  UNL1        0.0104
@<TRIPOS>BOND
     1    18    19    1
     2    19    20   ar
     3    20    21   ar
     4    21    22   ar
     5    22    23   ar
     6    23    14    1
     7    14    15   am
     8    15    16    2
     9    15     1    1
    10     1     2   ar
    11     2     3   ar
    12     3     4   ar
    13     4     6    1
    14     6     7   ar
    15     7     8   ar
    16     8     9   ar
    17     9    12    1
    18    12    13    3
    19     9    10   ar
    20    10    11   ar
    21     4     5   ar
    22    23    24   ar
    23    24    19   ar
    24     5     1   ar
    25    11     6   ar
    26    14    17    1
@<TRIPOS>MOLECULE
*****
 24 26 0 0 0
SMALL
GASTEIGER

@<TRIPOS>ATOM
      1 C         142.1599  138.3239  162.8750 C.ar    1  UNL1        0.1986
      2 C         141.2524  137.2092  163.3039 C.ar    1  UNL1        0.0454
      3 C         140.8356  137.4701  164.7211 C.ar    1  UNL1        0.0408
      4 C         141.4855  138.7461  165.1679 C.ar    1  UNL1        0.1455
      5 O         142.3040  139.2737  164.0270 O.2     1  UNL1       -0.4489
      6 C         141.3421  139.3827  166.5185 C.ar    1  UNL1        0.0346
      7 C         140.0004  139.8699  166.9795 C.ar    1  UNL1        0.0037
      8 C         139.8571  140.5064  168.3300 C.ar    1  UNL1        0.0104
      9 C         141.0554  140.6558  169.2198 C.ar    1  UNL1        0.0685
     10 C         142.3972  140.1686  168.7589 C.ar    1  UNL1        0.0104
     11 C         142.5405  139.5320  167.4083 C.ar    1  UNL1        0.0037
     12 C         140.9120  141.2924  170.5704 C.1     1  UNL1        0.1004
     13 N         140.7686  141.9290  171.9211 N.1     1  UNL1       -0.1908
     14 N         142.1532  139.2887  160.4627 N.am    1  UNL1       -0.2779
     15 C         142.8094  138.4640  161.5301 C.2     1  UNL1        0.2842
     16 O         144.1149  137.7795  161.2527 O.2     1  UNL1       -0.2665
     17 H         141.2964  139.7379  160.6448 H       1  UNL1        0.1553
     18 C         145.3465  141.8359  157.2511 C.3     1  UNL1        0.0311
     19 C         144.3993  140.7025  157.5120 C.ar    1  UNL1       -0.0206
     20 C         144.1015  139.7092  156.4282 C.ar    1  UNL1       -0.0042
     21 C         143.1543  138.5758  156.6892 C.ar    1  UNL1        0.0010
     22 C         142.5049  138.4356  158.0340 C.ar    1  UNL1        0.0147
     23 C         142.8027  139.4288  159.1178 C.ar    1  UNL1        0.0503
     24 C         143.7499  140.5623  158.8569 C.ar    1  UNL1        0.0104
@<TRIPOS>BOND
     1    18    19    1
     2    19    20   ar
     3    20    21   ar
     4    21    22   ar
     5    22    23   ar
     6    23    14    1
     7    14    15   am
     8    15    16    2
     9    15     1    1
    10     1     2   ar
    11     2     3   ar
    12     3     4   ar
    13     4     6    1
    14     6     7   ar
    15     7     8   ar
    16     8     9   ar
    17     9    12    1
    18    12    13    3
    19     9    10   ar
    20    10    11   ar
    21     4     5   ar
    22    23    24   ar
    23    24    19   ar
    24     5     1   ar
    25    11     6   ar
    26    14    17    1
@<TRIPOS>MOLECULE
*****
 24 26 0 0 0
SMALL
GASTEIGER

@<TRIPOS>ATOM
      1 C         142.0171  138.2783  162.7626 C.ar    1  UNL1        0.1986
      2 C         141.1620  137.1384  163.2311 C.ar    1  UNL1        0.0454
      3 C         140.7801  137.4014  164.6577 C.ar    1  UNL1        0.0408
      4 C         141.3992  138.7038  165.0707 C.ar    1  UNL1        0.1455
      5 O         142.1637  139.2457  163.8995 O.2     1  UNL1       -0.4489
      6 C         141.2755  139.3506  166.4184 C.ar    1  UNL1        0.0346
      7 C         142.4885  139.5159  167.2853 C.ar    1  UNL1        0.0037
      8 C         142.3648  140.1627  168.6329 C.ar    1  UNL1        0.0104
      9 C         141.0281  140.6444  169.1138 C.ar    1  UNL1        0.0685
     10 C         139.8150  140.4792  168.2469 C.ar    1  UNL1        0.0104
     11 C         139.9388  139.8323  166.8993 C.ar    1  UNL1        0.0037
     12 C         140.9044  141.2913  170.4615 C.1     1  UNL1        0.1004
     13 N         140.7807  141.9382  171.8092 N.1     1  UNL1       -0.1908
     14 N         141.7421  138.3827  160.1812 N.am    1  UNL1       -0.2779
     15 C         142.6199  138.4249  161.3968 C.2     1  UNL1        0.2842
     16 O         144.1004  138.6138  161.2467 O.2     1  UNL1       -0.2665
     17 H         140.7705  138.2587  160.2797 H       1  UNL1        0.1553
     18 C         143.5480  136.2393  155.8057 C.3     1  UNL1        0.0311
     19 C         143.2478  137.4576  156.6277 C.ar    1  UNL1       -0.0206
     20 C         143.5503  138.8224  156.0840 C.ar    1  UNL1       -0.0042
     21 C         143.2501  140.0407  156.9060 C.ar    1  UNL1        0.0010
     22 C         142.6474  139.8941  158.2717 C.ar    1  UNL1        0.0147
     23 C         142.3449  138.5293  158.8154 C.ar    1  UNL1        0.0503
     24 C         142.6451  137.3110  157.9934 C.ar    1  UNL1        0.0104
@<TRIPOS>BOND
     1    18    19    1
     2    19    20   ar
     3    20    21   ar
     4    21    22   ar
     5    22    23   ar
     6    23    14    1
     7    14    15   am
     8    15    16    2
     9    15     1    1
    10     1     2   ar
    11     2     3   ar
    12     3     4   ar
    13     4     6    1
    14     6     7   ar
    15     7     8   ar
    16     8     9   ar
    17     9    12    1
    18    12    13    3
    19     9    10   ar
    20    10    11   ar
    21     4     5   ar
    22    23    24   ar
    23    24    19   ar
    24     5     1   ar
    25    11     6   ar
    26    14    17    1
@<TRIPOS>MOLECULE
*****
 24 26 0 0 0
SMALL
GASTEIGER

@<TRIPOS>ATOM
      1 C         140.7659  138.4197  161.2023 C.ar    1  UNL1        0.1986
      2 C         139.2904  138.1668  161.1077 C.ar    1  UNL1        0.0454
      3 C         138.6893  138.4195  162.4586 C.ar    1  UNL1        0.0408
      4 C         139.7934  138.8286  163.3880 C.ar    1  UNL1        0.1455
      5 O         141.0768  138.8287  162.6115 O.2     1  UNL1       -0.4489
      6 C         139.6409  139.1765  164.8391 C.ar    1  UNL1        0.0346
      7 C         138.4313  138.7164  165.5976 C.ar    1  UNL1        0.0037
      8 C         138.2788  139.0643  167.0486 C.ar    1  UNL1        0.0104
      9 C         139.3358  139.8722  167.7413 C.ar    1  UNL1        0.0685
     10 C         140.5455  140.3324  166.9829 C.ar    1  UNL1        0.0104
     11 C         140.6979  139.9844  165.5318 C.ar    1  UNL1        0.0037
     12 C         139.1833  140.2201  169.1924 C.1     1  UNL1        0.1004
     13 N         139.0307  140.5680  170.6436 N.1     1  UNL1       -0.1908
     14 N         141.2834  138.2721  158.6605 N.am    1  UNL1       -0.2779
     15 C         141.7566  138.2869  160.0838 C.2     1  UNL1        0.2842
     16 O         143.2206  138.1690  160.3887 O.2     1  UNL1       -0.2665
     17 H         140.3225  138.3495  158.4604 H       1  UNL1        0.1553
     18 C         143.8927  135.3010  155.2894 C.3     1  UNL1        0.0311
     19 C         143.5787  136.6537  155.8565 C.ar    1  UNL1       -0.0206
     20 C         144.2554  137.8736  155.3052 C.ar    1  UNL1       -0.0042
     21 C         143.9414  139.2263  155.8723 C.ar    1  UNL1        0.0010
     22 C         142.9507  139.3591  156.9907 C.ar    1  UNL1        0.0147
     23 C         142.2741  138.1393  157.5420 C.ar    1  UNL1        0.0503
     24 C         142.5881  136.7866  156.9749 C.ar    1  UNL1        0.0104
@<TRIPOS>BOND
     1    18    19    1
     2    19    20   ar
     3    20    21   ar
     4    21    22   ar
     5    22    23   ar
     6    23    14    1
     7    14    15   am
     8    15    16    2
     9    15     1    1
    10     1     2   ar
    11     2     3   ar
    12     3     4   ar
    13     4     6    1
    14     6     7   ar
    15     7     8   ar
    16     8     9   ar
    17     9    12    1
    18    12    13    3
    19     9    10   ar
    20    10    11   ar
    21     4     5   ar
    22    23    24   ar
    23    24    19   ar
    24     5     1   ar
    25    11     6   ar
    26    14    17    1
@<TRIPOS>MOLECULE
*****
 24 26 0 0 0
SMALL
GASTEIGER

@<TRIPOS>ATOM
      1 C         142.7862  143.7576  162.3192 C.ar    1  UNL1        0.1986
      2 C         144.0456  144.3266  162.9025 C.ar    1  UNL1        0.0454
      3 C         144.0330  144.0625  164.3791 C.ar    1  UNL1        0.0408
      4 C         142.7659  143.3303  164.7083 C.ar    1  UNL1        0.1455
      5 O         141.9953  143.1419  163.4352 O.2     1  UNL1       -0.4489
      6 C         142.3435  142.8678  166.0711 C.ar    1  UNL1        0.0346
      7 C         143.3787  142.5257  167.1014 C.ar    1  UNL1        0.0037
      8 C         142.9563  142.0632  168.4643 C.ar    1  UNL1        0.0104
      9 C         141.4987  141.9427  168.7971 C.ar    1  UNL1        0.0685
     10 C         140.4634  142.2847  167.7668 C.ar    1  UNL1        0.0104
     11 C         140.8859  142.7473  166.4039 C.ar    1  UNL1        0.0037
     12 C         141.0763  141.4801  170.1600 C.1     1  UNL1        0.1004
     13 N         140.6538  141.0175  171.5230 N.1     1  UNL1       -0.1908
     14 N         141.6487  144.9850  160.3318 N.am    1  UNL1       -0.2779
     15 C         142.3877  143.7975  160.8736 C.2     1  UNL1        0.2842
     16 O         142.7282  142.6497  159.9699 O.2     1  UNL1       -0.2665
     17 H         141.4252  145.7383  160.9249 H       1  UNL1        0.1553
     18 C         138.5052  143.4571  156.4868 C.3     1  UNL1        0.0311
     19 C         139.6784  144.2608  156.9638 C.ar    1  UNL1       -0.0206
     20 C         140.4532  145.1043  155.9952 C.ar    1  UNL1       -0.0042
     21 C         141.6265  145.9081  156.4721 C.ar    1  UNL1        0.0010
     22 C         142.0250  145.8683  157.9176 C.ar    1  UNL1        0.0147
     23 C         141.2502  145.0248  158.8862 C.ar    1  UNL1        0.0503
     24 C         140.0769  144.2211  158.4093 C.ar    1  UNL1        0.0104
@<TRIPOS>BOND
     1    18    19    1
     2    19    20   ar
     3    20    21   ar
     4    21    22   ar
     5    22    23   ar
     6    23    14    1
     7    14    15   am
     8    15    16    2
     9    15     1    1
    10     1     2   ar
    11     2     3   ar
    12     3     4   ar
    13     4     6    1
    14     6     7   ar
    15     7     8   ar
    16     8     9   ar
    17     9    12    1
    18    12    13    3
    19     9    10   ar
    20    10    11   ar
    21     4     5   ar
    22    23    24   ar
    23    24    19   ar
    24     5     1   ar
    25    11     6   ar
    26    14    17    1
@<TRIPOS>MOLECULE
*****
 24 26 0 0 0
SMALL
GASTEIGER

@<TRIPOS>ATOM
      1 C         144.0720  141.2417  162.6737 C.ar    1  UNL1        0.1986
      2 C         145.2037  142.0425  163.2465 C.ar    1  UNL1        0.0454
      3 C         144.7893  142.5246  164.6052 C.ar    1  UNL1        0.0408
      4 C         143.4014  142.0218  164.8720 C.ar    1  UNL1        0.1455
      5 O         142.9581  141.2289  163.6783 O.2     1  UNL1       -0.4489
      6 C         142.5980  142.2685  166.1143 C.ar    1  UNL1        0.0346
      7 C         143.2512  142.1734  167.4613 C.ar    1  UNL1        0.0037
      8 C         142.4478  142.4201  168.7036 C.ar    1  UNL1        0.0104
      9 C         140.9910  142.7619  168.5991 C.ar    1  UNL1        0.0685
     10 C         140.3376  142.8570  167.2522 C.ar    1  UNL1        0.0104
     11 C         141.1412  142.6102  166.0099 C.ar    1  UNL1        0.0037
     12 C         140.1875  143.0086  169.8416 C.1     1  UNL1        0.1004
     13 N         139.3840  143.2553  171.0840 N.1     1  UNL1       -0.1908
     14 N         143.7221  141.3624  160.1021 N.am    1  UNL1       -0.2779
     15 C         144.0568  140.5715  161.3318 C.2     1  UNL1        0.2842
     16 O         144.3764  139.1102  161.2198 O.2     1  UNL1       -0.2665
     17 H         143.5124  142.3215  160.1757 H       1  UNL1        0.1553
     18 C         145.7908  140.6931  155.3827 C.3     1  UNL1        0.0311
     19 C         144.7413  140.3575  156.4006 C.ar    1  UNL1       -0.0206
     20 C         143.6768  139.3517  156.0766 C.ar    1  UNL1       -0.0042
     21 C         142.6273  139.0161  157.0944 C.ar    1  UNL1        0.0010
     22 C         142.6424  139.6863  158.4362 C.ar    1  UNL1        0.0147
     23 C         143.7070  140.6922  158.7602 C.ar    1  UNL1        0.0503
     24 C         144.7564  141.0278  157.7424 C.ar    1  UNL1        0.0104
@<TRIPOS>BOND
     1    18    19    1
     2    19    20   ar
     3    20    21   ar
     4    21    22   ar
     5    22    23   ar
     6    23    14    1
     7    14    15   am
     8    15    16    2
     9    15     1    1
    10     1     2   ar
    11     2     3   ar
    12     3     4   ar
    13     4     6    1
    14     6     7   ar
    15     7     8   ar
    16     8     9   ar
    17     9    12    1
    18    12    13    3
    19     9    10   ar
    20    10    11   ar
    21     4     5   ar
    22    23    24   ar
    23    24    19   ar
    24     5     1   ar
    25    11     6   ar
    26    14    17    1
@<TRIPOS>MOLECULE
*****
 24 26 0 0 0
SMALL
GASTEIGER

@<TRIPOS>ATOM
      1 C         142.7151  137.6696  158.1188 C.ar    1  UNL1        0.1986
      2 C         142.4729  139.1496  158.0875 C.ar    1  UNL1        0.0454
      3 C         142.4934  139.6525  159.5007 C.ar    1  UNL1        0.0408
      4 C         142.7483  138.4833  160.4051 C.ar    1  UNL1        0.1455
      5 O         142.8853  137.2578  159.5511 O.2     1  UNL1       -0.4489
      6 C         142.8486  138.5312  161.9009 C.ar    1  UNL1        0.0346
      7 C         144.0011  139.2356  162.5533 C.ar    1  UNL1        0.0037
      8 C         144.1013  139.2835  164.0491 C.ar    1  UNL1        0.0104
      9 C         143.0491  138.6269  164.8927 C.ar    1  UNL1        0.0685
     10 C         141.8965  137.9224  164.2404 C.ar    1  UNL1        0.0104
     11 C         141.7963  137.8746  162.7446 C.ar    1  UNL1        0.0037
     12 C         143.1494  138.6748  166.3886 C.1     1  UNL1        0.1004
     13 N         143.2496  138.7227  167.8845 N.1     1  UNL1       -0.1908
     14 N         141.5365  136.0639  156.4506 N.am    1  UNL1       -0.2779
     15 C         142.7764  136.7609  156.9269 C.2     1  UNL1        0.2842
     16 O         144.0775  136.5492  156.2112 O.2     1  UNL1       -0.2665
     17 H         140.6825  136.2028  156.9203 H       1  UNL1        0.1553
     18 C         141.6258  131.2708  154.4460 C.3     1  UNL1        0.0311
     19 C         141.6424  132.7587  154.2564 C.ar    1  UNL1       -0.0206
     20 C         141.7202  133.3379  152.8750 C.ar    1  UNL1       -0.0042
     21 C         141.7368  134.8258  152.6854 C.ar    1  UNL1        0.0010
     22 C         141.6755  135.7345  153.8773 C.ar    1  UNL1        0.0147
     23 C         141.5977  135.1552  155.2587 C.ar    1  UNL1        0.0503
     24 C         141.5812  133.6674  155.4483 C.ar    1  UNL1        0.0104
@<TRIPOS>BOND
     1    18    19    1
     2    19    20   ar
     3    20    21   ar
     4    21    22   ar
     5    22    23   ar
     6    23    14    1
     7    14    15   am
     8    15    16    2
     9    15     1    1
    10     1     2   ar
    11     2     3   ar
    12     3     4   ar
    13     4     6    1
    14     6     7   ar
    15     7     8   ar
    16     8     9   ar
    17     9    12    1
    18    12    13    3
    19     9    10   ar
    20    10    11   ar
    21     4     5   ar
    22    23    24   ar
    23    24    19   ar
    24     5     1   ar
    25    11     6   ar
    26    14    17    1
@<TRIPOS>MOLECULE
*****
 24 26 0 0 0
SMALL
GASTEIGER

@<TRIPOS>ATOM
      1 C         140.3557  138.4366  162.7686 C.ar    1  UNL1        0.1986
      2 C         141.3511  137.4153  163.2334 C.ar    1  UNL1        0.0454
      3 C         141.6451  137.6797  164.6804 C.ar    1  UNL1        0.0408
      4 C         140.8313  138.8644  165.1098 C.ar    1  UNL1        0.1455
      5 O         140.0344  139.3322  163.9282 O.2     1  UNL1       -0.4489
      6 C         140.8169  139.4742  166.4801 C.ar    1  UNL1        0.0346
      7 C         142.1071  139.7256  167.2028 C.ar    1  UNL1        0.0037
      8 C         142.0927  140.3354  168.5731 C.ar    1  UNL1        0.0104
      9 C         140.7881  140.6938  169.2209 C.ar    1  UNL1        0.0685
     10 C         139.4978  140.4424  168.4983 C.ar    1  UNL1        0.0104
     11 C         139.5123  139.8326  167.1279 C.ar    1  UNL1        0.0037
     12 C         140.7737  141.3036  170.5913 C.1     1  UNL1        0.1004
     13 N         140.7593  141.9134  171.9617 N.1     1  UNL1       -0.1908
     14 N         140.6171  139.0939  160.2686 N.am    1  UNL1       -0.2779
     15 C         139.7822  138.5436  161.3866 C.2     1  UNL1        0.2842
     16 O         138.3737  138.1001  161.1227 O.2     1  UNL1       -0.2665
     17 H         141.5415  139.3849  160.4418 H       1  UNL1        0.1553
     18 C         139.7193  137.0073  155.5953 C.3     1  UNL1        0.0311
     19 C         139.5947  138.1575  156.5500 C.ar    1  UNL1       -0.0206
     20 C         138.8967  139.4146  156.1229 C.ar    1  UNL1       -0.0042
     21 C         138.7722  140.5648  157.0776 C.ar    1  UNL1        0.0010
     22 C         139.3456  140.4579  158.4595 C.ar    1  UNL1        0.0147
     23 C         140.0436  139.2008  158.8867 C.ar    1  UNL1        0.0503
     24 C         140.1682  138.0506  157.9319 C.ar    1  UNL1        0.0104
@<TRIPOS>BOND
     1    18    19    1
     2    19    20   ar
     3    20    21   ar
     4    21    22   ar
     5    22    23   ar
     6    23    14    1
     7    14    15   am
     8    15    16    2
     9    15     1    1
    10     1     2   ar
    11     2     3   ar
    12     3     4   ar
    13     4     6    1
    14     6     7   ar
    15     7     8   ar
    16     8     9   ar
    17     9    12    1
    18    12    13    3
    19     9    10   ar
    20    10    11   ar
    21     4     5   ar
    22    23    24   ar
    23    24    19   ar
    24     5     1   ar
    25    11     6   ar
    26    14    17    1
