@<TRIPOS>MOLECULE
*****
 26 28 0 0 0
SMALL
GASTEIGER

@<TRIPOS>ATOM
      1 C         145.0146  142.3249  163.8752 C.3     1  UNL1        0.0992
      2 C         145.0905  142.5533  161.2883 C.3     1  UNL1        0.0902
      3 N         144.6744  143.0851  162.6277 N.3     1  UNL1       -0.2639
      4 C         143.9180  144.3772  162.7196 C.3     1  UNL1        0.0994
      5 C         142.4241  144.3831  162.5836 C.ar    1  UNL1       -0.0062
      6 C         141.7948  144.3479  161.2226 C.ar    1  UNL1        0.0002
      7 C         140.3010  144.3538  161.0866 C.ar    1  UNL1        0.0363
      8 C         139.4365  144.3948  162.3118 C.ar    1  UNL1        0.1346
      9 C         140.0659  144.4300  163.6729 C.ar    1  UNL1        0.0153
     10 C         141.5597  144.4242  163.8089 C.ar    1  UNL1       -0.0041
     11 C         138.9655  144.4667  164.6916 C.3     1  UNL1        0.0767
     12 C         137.6561  144.4542  163.9600 C.3     1  UNL1        0.2102
     13 O         137.9472  144.4098  162.4892 O.3     1  UNL1       -0.4754
     14 C         143.9198  141.8116  164.7628 C.2     1  UNL1       -0.0087
     15 C         143.4889  142.6074  165.9591 C.2     1  UNL1       -0.0010
     16 C         142.3941  142.0941  166.8467 C.ar    1  UNL1        0.0272
     17 C         141.0856  141.6652  166.2521 C.ar    1  UNL1        0.0022
     18 C         139.9907  141.1519  167.1397 C.ar    1  UNL1        0.0040
     19 C         140.2045  141.0675  168.6220 C.ar    1  UNL1        0.0737
     20 C         141.5130  141.4964  169.2167 C.ar    1  UNL1        0.0335
     21 C         142.6079  142.0097  168.3291 C.ar    1  UNL1        0.1400
     22 F         143.9164  142.4386  168.9237 F       1  UNL1       -0.2042
     23 C         139.1096  140.5542  169.5096 C.3     1  UNL1        0.4186
     24 F         138.0148  140.0408  170.3971 F       1  UNL1       -0.1659
     25 F         139.4563  141.5909  170.5367 F       1  UNL1       -0.1659
     26 F         138.7630  139.5174  168.4824 F       1  UNL1       -0.1659
@<TRIPOS>BOND
     1     2     3    1
     2     3     1    1
     3     1    14    1
     4    14    15    2
     5    15    16    1
     6    16    17   ar
     7    17    18   ar
     8    18    19   ar
     9    19    23    1
    10    23    24    1
    11    23    25    1
    12    23    26    1
    13    19    20   ar
    14    20    21   ar
    15    21    22    1
    16     3     4    1
    17     4     5    1
    18     5     6   ar
    19     6     7   ar
    20     7     8   ar
    21     8     9   ar
    22     9    10   ar
    23     9    11    1
    24    11    12    1
    25    12    13    1
    26    21    16   ar
    27    10     5   ar
    28    13     8    1
@<TRIPOS>MOLECULE
*****
 26 28 0 0 0
SMALL
GASTEIGER

@<TRIPOS>ATOM
      1 C         138.9891  144.9386  164.7218 C.3     1  UNL1        0.0992
      2 C         139.4838  145.1187  162.1777 C.3     1  UNL1        0.0902
      3 N         138.7114  144.5114  163.3110 N.3     1  UNL1       -0.2639
      4 C         137.6612  143.4769  163.0336 C.3     1  UNL1        0.0994
      5 C         137.9916  142.0194  163.1626 C.ar    1  UNL1       -0.0062
      6 C         138.3884  141.2302  161.9503 C.ar    1  UNL1        0.0002
      7 C         138.7188  139.7728  162.0793 C.ar    1  UNL1        0.0363
      8 C         138.6524  139.1045  163.4205 C.ar    1  UNL1        0.1346
      9 C         138.2555  139.8937  164.6328 C.ar    1  UNL1        0.0153
     10 C         137.9251  141.3511  164.5039 C.ar    1  UNL1       -0.0041
     11 C         138.2778  138.9703  165.8147 C.3     1  UNL1        0.0767
     12 C         138.6884  137.6105  165.3329 C.3     1  UNL1        0.2102
     13 O         138.9199  137.6934  163.8532 O.3     1  UNL1       -0.4754
     14 C         139.4544  143.9325  165.7324 C.2     1  UNL1       -0.0087
     15 C         140.6571  143.0831  165.4462 C.2     1  UNL1       -0.0010
     16 C         141.1223  142.0769  166.4567 C.ar    1  UNL1        0.0272
     17 C         141.1209  142.4237  167.9160 C.ar    1  UNL1        0.0022
     18 C         141.5861  141.4175  168.9265 C.ar    1  UNL1        0.0040
     19 C         142.0529  140.0645  168.4777 C.ar    1  UNL1        0.0737
     20 C         142.0544  139.7176  167.0184 C.ar    1  UNL1        0.0335
     21 C         141.5891  140.7238  166.0079 C.ar    1  UNL1        0.1400
     22 F         141.5906  140.3769  164.5485 F       1  UNL1       -0.2042
     23 C         142.5181  139.0583  169.4883 C.3     1  UNL1        0.4186
     24 F         142.9833  138.0523  170.4989 F       1  UNL1       -0.1659
     25 F         143.2324  138.3028  168.4071 F       1  UNL1       -0.1659
     26 F         141.8038  139.8140  170.5694 F       1  UNL1       -0.1659
@<TRIPOS>BOND
     1     2     3    1
     2     3     1    1
     3     1    14    1
     4    14    15    2
     5    15    16    1
     6    16    17   ar
     7    17    18   ar
     8    18    19   ar
     9    19    23    1
    10    23    24    1
    11    23    25    1
    12    23    26    1
    13    19    20   ar
    14    20    21   ar
    15    21    22    1
    16     3     4    1
    17     4     5    1
    18     5     6   ar
    19     6     7   ar
    20     7     8   ar
    21     8     9   ar
    22     9    10   ar
    23     9    11    1
    24    11    12    1
    25    12    13    1
    26    21    16   ar
    27    10     5   ar
    28    13     8    1
@<TRIPOS>MOLECULE
*****
 26 28 0 0 0
SMALL
GASTEIGER

@<TRIPOS>ATOM
      1 C         138.4593  144.0788  164.1825 C.3     1  UNL1        0.0992
      2 C         138.1357  142.9124  161.8836 C.3     1  UNL1        0.0902
      3 N         138.9285  143.8143  162.7825 N.3     1  UNL1       -0.2639
      4 C         140.1905  144.4518  162.2814 C.3     1  UNL1        0.0994
      5 C         141.5165  144.0352  162.8457 C.ar    1  UNL1       -0.0062
      6 C         142.3450  145.0183  163.6182 C.ar    1  UNL1        0.0002
      7 C         143.6709  144.6017  164.1825 C.ar    1  UNL1        0.0363
      8 C         144.1683  143.2020  163.9741 C.ar    1  UNL1        0.1346
      9 C         143.3397  142.2188  163.2015 C.ar    1  UNL1        0.0153
     10 C         142.0138  142.6354  162.6373 C.ar    1  UNL1       -0.0041
     11 C         144.0848  140.9177  163.1582 C.3     1  UNL1        0.0767
     12 C         145.3739  141.0967  163.9040 C.3     1  UNL1        0.2102
     13 O         145.4255  142.5085  164.4083 O.3     1  UNL1       -0.4754
     14 C         139.2482  143.5606  165.3483 C.2     1  UNL1       -0.0087
     15 C         139.7070  142.1326  165.3682 C.2     1  UNL1       -0.0010
     16 C         140.4959  141.6145  166.5340 C.ar    1  UNL1        0.0272
     17 C         141.8364  142.2060  166.8549 C.ar    1  UNL1        0.0022
     18 C         142.6252  141.6878  168.0208 C.ar    1  UNL1        0.0040
     19 C         142.0735  140.5781  168.8658 C.ar    1  UNL1        0.0737
     20 C         140.7330  139.9865  168.5449 C.ar    1  UNL1        0.0335
     21 C         139.9441  140.5046  167.3791 C.ar    1  UNL1        0.1400
     22 F         138.6036  139.9130  167.0582 F       1  UNL1       -0.2042
     23 C         142.8624  140.0599  170.0317 C.3     1  UNL1        0.4186
     24 F         143.6513  139.5419  171.1975 F       1  UNL1       -0.1659
     25 F         142.0381  138.8067  170.0324 F       1  UNL1       -0.1659
     26 F         143.6866  141.3132  170.0308 F       1  UNL1       -0.1659
@<TRIPOS>BOND
     1     2     3    1
     2     3     1    1
     3     1    14    1
     4    14    15    2
     5    15    16    1
     6    16    17   ar
     7    17    18   ar
     8    18    19   ar
     9    19    23    1
    10    23    24    1
    11    23    25    1
    12    23    26    1
    13    19    20   ar
    14    20    21   ar
    15    21    22    1
    16     3     4    1
    17     4     5    1
    18     5     6   ar
    19     6     7   ar
    20     7     8   ar
    21     8     9   ar
    22     9    10   ar
    23     9    11    1
    24    11    12    1
    25    12    13    1
    26    21    16   ar
    27    10     5   ar
    28    13     8    1
@<TRIPOS>MOLECULE
*****
 26 28 0 0 0
SMALL
GASTEIGER

@<TRIPOS>ATOM
      1 C         138.8660  138.0495  164.4586 C.3     1  UNL1        0.0992
      2 C         139.4271  137.9214  161.9251 C.3     1  UNL1        0.0902
      3 N         138.7452  138.6075  163.0716 N.3     1  UNL1       -0.2639
      4 C         137.9425  139.8516  162.8309 C.3     1  UNL1        0.0994
      5 C         138.4818  141.1858  163.2544 C.ar    1  UNL1       -0.0062
      6 C         137.6438  142.0999  164.0981 C.ar    1  UNL1        0.0002
      7 C         138.1830  143.4340  164.5216 C.ar    1  UNL1        0.0363
      8 C         139.5603  143.8540  164.1013 C.ar    1  UNL1        0.1346
      9 C         140.3984  142.9398  163.2576 C.ar    1  UNL1        0.0153
     10 C         139.8592  141.6057  162.8341 C.ar    1  UNL1       -0.0041
     11 C         141.7098  143.6204  162.9986 C.3     1  UNL1        0.0767
     12 C         141.6822  144.9552  163.6823 C.3     1  UNL1        0.2102
     13 O         140.3537  145.0996  164.3638 O.3     1  UNL1       -0.4754
     14 C         139.3779  138.9136  165.5727 C.2     1  UNL1       -0.0087
     15 C         140.7776  139.4507  165.5228 C.2     1  UNL1       -0.0010
     16 C         141.2896  140.3148  166.6369 C.ar    1  UNL1        0.0272
     17 C         140.6707  141.6575  166.8897 C.ar    1  UNL1        0.0022
     18 C         141.1827  142.5216  168.0038 C.ar    1  UNL1        0.0040
     19 C         142.3135  142.0430  168.8652 C.ar    1  UNL1        0.0737
     20 C         142.9324  140.7002  168.6125 C.ar    1  UNL1        0.0335
     21 C         142.4205  139.8361  167.4984 C.ar    1  UNL1        0.1400
     22 F         143.0394  138.4933  167.2457 F       1  UNL1       -0.2042
     23 C         142.8255  142.9071  169.9793 C.3     1  UNL1        0.4186
     24 F         143.3373  143.7712  171.0933 F       1  UNL1       -0.1659
     25 F         144.0939  142.1073  170.0167 F       1  UNL1       -0.1659
     26 F         141.5570  143.7068  169.9418 F       1  UNL1       -0.1659
@<TRIPOS>BOND
     1     2     3    1
     2     3     1    1
     3     1    14    1
     4    14    15    2
     5    15    16    1
     6    16    17   ar
     7    17    18   ar
     8    18    19   ar
     9    19    23    1
    10    23    24    1
    11    23    25    1
    12    23    26    1
    13    19    20   ar
    14    20    21   ar
    15    21    22    1
    16     3     4    1
    17     4     5    1
    18     5     6   ar
    19     6     7   ar
    20     7     8   ar
    21     8     9   ar
    22     9    10   ar
    23     9    11    1
    24    11    12    1
    25    12    13    1
    26    21    16   ar
    27    10     5   ar
    28    13     8    1
@<TRIPOS>MOLECULE
*****
 26 28 0 0 0
SMALL
GASTEIGER

@<TRIPOS>ATOM
      1 C         139.0806  137.6032  164.2025 C.3     1  UNL1        0.0992
      2 C         138.0732  138.5627  162.0083 C.3     1  UNL1        0.0902
      3 N         139.2504  138.0414  162.7780 N.3     1  UNL1       -0.2639
      4 C         140.5974  137.9584  162.1232 C.3     1  UNL1        0.0994
      5 C         141.5864  139.0727  162.2981 C.ar    1  UNL1       -0.0062
      6 C         141.3293  140.4093  161.6679 C.ar    1  UNL1        0.0002
      7 C         142.3181  141.5236  161.8428 C.ar    1  UNL1        0.0363
      8 C         143.5641  141.3012  162.6478 C.ar    1  UNL1        0.1346
      9 C         143.8212  139.9645  163.2780 C.ar    1  UNL1        0.0153
     10 C         142.8324  138.8502  163.1032 C.ar    1  UNL1       -0.0041
     11 C         145.1278  140.0410  164.0108 C.3     1  UNL1        0.0767
     12 C         145.6782  141.4251  163.8335 C.3     1  UNL1        0.2102
     13 O         144.7118  142.2039  162.9911 O.3     1  UNL1       -0.4754
     14 C         139.7892  138.3369  165.3024 C.2     1  UNL1       -0.0087
     15 C         139.8070  139.8367  165.3133 C.2     1  UNL1       -0.0010
     16 C         140.5156  140.5703  166.4132 C.ar    1  UNL1        0.0272
     17 C         141.7652  141.3444  166.1148 C.ar    1  UNL1        0.0022
     18 C         142.4737  142.0780  167.2147 C.ar    1  UNL1        0.0040
     19 C         141.9326  142.0376  168.6131 C.ar    1  UNL1        0.0737
     20 C         140.6829  141.2635  168.9116 C.ar    1  UNL1        0.0335
     21 C         139.9744  140.5299  167.8117 C.ar    1  UNL1        0.1400
     22 F         138.7247  139.7558  168.1102 F       1  UNL1       -0.2042
     23 C         142.6411  142.7712  169.7130 C.3     1  UNL1        0.4186
     24 F         143.3497  143.5047  170.8128 F       1  UNL1       -0.1659
     25 F         141.4671  143.6942  169.8537 F       1  UNL1       -0.1659
     26 F         143.8151  141.8482  169.5723 F       1  UNL1       -0.1659
@<TRIPOS>BOND
     1     2     3    1
     2     3     1    1
     3     1    14    1
     4    14    15    2
     5    15    16    1
     6    16    17   ar
     7    17    18   ar
     8    18    19   ar
     9    19    23    1
    10    23    24    1
    11    23    25    1
    12    23    26    1
    13    19    20   ar
    14    20    21   ar
    15    21    22    1
    16     3     4    1
    17     4     5    1
    18     5     6   ar
    19     6     7   ar
    20     7     8   ar
    21     8     9   ar
    22     9    10   ar
    23     9    11    1
    24    11    12    1
    25    12    13    1
    26    21    16   ar
    27    10     5   ar
    28    13     8    1
@<TRIPOS>MOLECULE
*****
 26 28 0 0 0
SMALL
GASTEIGER

@<TRIPOS>ATOM
      1 C         138.8186  137.9690  164.4998 C.3     1  UNL1        0.0992
      2 C         139.9520  137.8048  162.1678 C.3     1  UNL1        0.0902
      3 N         138.9378  138.4316  163.0779 N.3     1  UNL1       -0.2639
      4 C         138.0427  139.5211  162.5661 C.3     1  UNL1        0.0994
      5 C         138.4046  140.9587  162.7952 C.ar    1  UNL1       -0.0062
      6 C         137.3430  141.9480  163.1749 C.ar    1  UNL1        0.0002
      7 C         137.7049  143.3856  163.4040 C.ar    1  UNL1        0.0363
      8 C         139.1284  143.8338  163.2533 C.ar    1  UNL1        0.1346
      9 C         140.1900  142.8445  162.8736 C.ar    1  UNL1        0.0153
     10 C         139.8282  141.4069  162.6445 C.ar    1  UNL1       -0.0041
     11 C         141.4985  143.5742  162.7993 C.3     1  UNL1        0.0767
     12 C         141.2455  145.0145  163.1331 C.3     1  UNL1        0.2102
     13 O         139.7807  145.1750  163.4137 O.3     1  UNL1       -0.4754
     14 C         139.3461  138.8243  165.6135 C.2     1  UNL1       -0.0087
     15 C         140.7284  139.4001  165.5267 C.2     1  UNL1       -0.0010
     16 C         141.2560  140.2553  166.6404 C.ar    1  UNL1        0.0272
     17 C         142.3771  139.7563  167.5029 C.ar    1  UNL1        0.0022
     18 C         142.9046  140.6115  168.6165 C.ar    1  UNL1        0.0040
     19 C         142.3109  141.9659  168.8678 C.ar    1  UNL1        0.0737
     20 C         141.1898  142.4651  168.0053 C.ar    1  UNL1        0.0335
     21 C         140.6623  141.6098  166.8917 C.ar    1  UNL1        0.1400
     22 F         139.5411  142.1090  166.0292 F       1  UNL1       -0.2042
     23 C         142.8384  142.8212  169.9815 C.3     1  UNL1        0.4186
     24 F         143.3660  143.6763  171.0951 F       1  UNL1       -0.1659
     25 F         141.5893  143.6504  169.9363 F       1  UNL1       -0.1659
     26 F         144.0875  141.9918  170.0266 F       1  UNL1       -0.1659
@<TRIPOS>BOND
     1     2     3    1
     2     3     1    1
     3     1    14    1
     4    14    15    2
     5    15    16    1
     6    16    17   ar
     7    17    18   ar
     8    18    19   ar
     9    19    23    1
    10    23    24    1
    11    23    25    1
    12    23    26    1
    13    19    20   ar
    14    20    21   ar
    15    21    22    1
    16     3     4    1
    17     4     5    1
    18     5     6   ar
    19     6     7   ar
    20     7     8   ar
    21     8     9   ar
    22     9    10   ar
    23     9    11    1
    24    11    12    1
    25    12    13    1
    26    21    16   ar
    27    10     5   ar
    28    13     8    1
@<TRIPOS>MOLECULE
*****
 26 28 0 0 0
SMALL
GASTEIGER

@<TRIPOS>ATOM
      1 C         144.8524  140.6549  163.5677 C.3     1  UNL1        0.0992
      2 C         144.0908  139.9695  161.1803 C.3     1  UNL1        0.0902
      3 N         144.3704  141.0344  162.1989 N.3     1  UNL1       -0.2639
      4 C         144.1679  142.4789  161.8488 C.3     1  UNL1        0.0994
      5 C         142.9676  143.2149  162.3662 C.ar    1  UNL1       -0.0062
      6 C         143.1423  144.5063  163.1089 C.ar    1  UNL1        0.0002
      7 C         141.9420  145.2423  163.6262 C.ar    1  UNL1        0.0363
      8 C         140.5670  144.6868  163.4009 C.ar    1  UNL1        0.1346
      9 C         140.3922  143.3954  162.6582 C.ar    1  UNL1        0.0153
     10 C         141.5925  142.6594  162.1408 C.ar    1  UNL1       -0.0041
     11 C         138.9242  143.0954  162.5890 C.3     1  UNL1        0.0767
     12 C         138.1916  144.2015  163.2890 C.3     1  UNL1        0.2102
     13 O         139.2069  145.1850  163.7907 O.3     1  UNL1       -0.4754
     14 C         144.1508  141.1840  164.7834 C.2     1  UNL1       -0.0087
     15 C         142.7612  140.7218  165.1080 C.2     1  UNL1       -0.0010
     16 C         142.0597  141.2509  166.3237 C.ar    1  UNL1        0.0272
     17 C         141.1421  142.4316  166.2058 C.ar    1  UNL1        0.0022
     18 C         140.4406  142.9607  167.4215 C.ar    1  UNL1        0.0040
     19 C         140.6565  142.3090  168.7552 C.ar    1  UNL1        0.0737
     20 C         141.5741  141.1283  168.8731 C.ar    1  UNL1        0.0335
     21 C         142.2757  140.5992  167.6575 C.ar    1  UNL1        0.1400
     22 F         143.1932  139.4185  167.7755 F       1  UNL1       -0.2042
     23 C         139.9550  142.8381  169.9708 C.3     1  UNL1        0.4186
     24 F         139.2534  143.3671  171.1865 F       1  UNL1       -0.1659
     25 F         140.7283  144.1186  169.8598 F       1  UNL1       -0.1659
     26 F         139.1816  141.5576  170.0817 F       1  UNL1       -0.1659
@<TRIPOS>BOND
     1     2     3    1
     2     3     1    1
     3     1    14    1
     4    14    15    2
     5    15    16    1
     6    16    17   ar
     7    17    18   ar
     8    18    19   ar
     9    19    23    1
    10    23    24    1
    11    23    25    1
    12    23    26    1
    13    19    20   ar
    14    20    21   ar
    15    21    22    1
    16     3     4    1
    17     4     5    1
    18     5     6   ar
    19     6     7   ar
    20     7     8   ar
    21     8     9   ar
    22     9    10   ar
    23     9    11    1
    24    11    12    1
    25    12    13    1
    26    21    16   ar
    27    10     5   ar
    28    13     8    1
@<TRIPOS>MOLECULE
*****
 26 28 0 0 0
SMALL
GASTEIGER

@<TRIPOS>ATOM
      1 C         142.7073  139.8757  169.1661 C.3     1  UNL1        0.0992
      2 C         141.5248  141.4381  170.8720 C.3     1  UNL1        0.0902
      3 N         141.4491  140.4544  169.7421 N.3     1  UNL1       -0.2639
      4 C         140.1152  140.0495  169.1883 C.3     1  UNL1        0.0994
      5 C         139.7192  140.4693  167.8037 C.ar    1  UNL1       -0.0062
      6 C         138.9382  139.5326  166.9305 C.ar    1  UNL1        0.0002
      7 C         138.5423  139.9523  165.5460 C.ar    1  UNL1        0.0363
      8 C         138.9274  141.3088  165.0346 C.ar    1  UNL1        0.1346
      9 C         139.7084  142.2456  165.9078 C.ar    1  UNL1        0.0153
     10 C         140.1043  141.8259  167.2923 C.ar    1  UNL1       -0.0041
     11 C         139.9438  143.5105  165.1366 C.3     1  UNL1        0.0767
     12 C         139.3083  143.3554  163.7868 C.3     1  UNL1        0.2102
     13 O         138.6801  141.9947  163.7237 O.3     1  UNL1       -0.4754
     14 C         142.6917  139.2586  167.7990 C.2     1  UNL1       -0.0087
     15 C         143.0583  140.0822  166.6001 C.2     1  UNL1       -0.0010
     16 C         143.0427  139.4650  165.2330 C.ar    1  UNL1        0.0272
     17 C         141.9433  138.5195  164.8494 C.ar    1  UNL1        0.0022
     18 C         141.9276  137.9024  163.4823 C.ar    1  UNL1        0.0040
     19 C         143.0115  138.2308  162.4988 C.ar    1  UNL1        0.0737
     20 C         144.1109  139.1764  162.8823 C.ar    1  UNL1        0.0335
     21 C         144.1266  139.7935  164.2494 C.ar    1  UNL1        0.1400
     22 F         145.2260  140.7391  164.6329 F       1  UNL1       -0.2042
     23 C         142.9958  137.6137  161.1317 C.3     1  UNL1        0.4186
     24 F         142.9801  136.9966  159.7646 F       1  UNL1       -0.1659
     25 F         144.4556  137.2933  161.2596 F       1  UNL1       -0.1659
     26 F         141.5360  137.9342  161.0038 F       1  UNL1       -0.1659
@<TRIPOS>BOND
     1     2     3    1
     2     3     1    1
     3     1    14    1
     4    14    15    2
     5    15    16    1
     6    16    17   ar
     7    17    18   ar
     8    18    19   ar
     9    19    23    1
    10    23    24    1
    11    23    25    1
    12    23    26    1
    13    19    20   ar
    14    20    21   ar
    15    21    22    1
    16     3     4    1
    17     4     5    1
    18     5     6   ar
    19     6     7   ar
    20     7     8   ar
    21     8     9   ar
    22     9    10   ar
    23     9    11    1
    24    11    12    1
    25    12    13    1
    26    21    16   ar
    27    10     5   ar
    28    13     8    1
@<TRIPOS>MOLECULE
*****
 26 28 0 0 0
SMALL
GASTEIGER

@<TRIPOS>ATOM
      1 C         144.2471  140.6299  162.1545 C.3     1  UNL1        0.0992
      2 C         143.6202  140.9357  159.6518 C.3     1  UNL1        0.0902
      3 N         143.8690  141.5224  161.0097 N.3     1  UNL1       -0.2639
      4 C         143.7397  143.0016  161.2228 C.3     1  UNL1        0.0994
      5 C         142.5618  143.5514  161.9715 C.ar    1  UNL1       -0.0062
      6 C         142.7708  144.5568  163.0647 C.ar    1  UNL1        0.0002
      7 C         141.5930  145.1065  163.8133 C.ar    1  UNL1        0.0363
      8 C         140.2061  144.6509  163.4686 C.ar    1  UNL1        0.1346
      9 C         139.9970  143.6454  162.3753 C.ar    1  UNL1        0.0153
     10 C         141.1749  143.0956  161.6267 C.ar    1  UNL1       -0.0041
     11 C         138.5242  143.3863  162.2592 C.3     1  UNL1        0.0767
     12 C         137.8229  144.2317  163.2807 C.3     1  UNL1        0.2102
     13 O         138.8624  145.0132  164.0282 O.3     1  UNL1       -0.4754
     14 C         143.2129  140.2241  163.1623 C.2     1  UNL1       -0.0087
     15 C         141.8831  139.7027  162.7042 C.2     1  UNL1       -0.0010
     16 C         140.8490  139.2968  163.7120 C.ar    1  UNL1        0.0272
     17 C         140.2853  137.9070  163.6903 C.ar    1  UNL1        0.0022
     18 C         139.2511  137.5012  164.6981 C.ar    1  UNL1        0.0040
     19 C         138.7806  138.4852  165.7278 C.ar    1  UNL1        0.0737
     20 C         139.3443  139.8751  165.7497 C.ar    1  UNL1        0.0335
     21 C         140.3785  140.2809  164.7418 C.ar    1  UNL1        0.1400
     22 F         140.9421  141.6708  164.7636 F       1  UNL1       -0.2042
     23 C         137.7465  138.0793  166.7357 C.3     1  UNL1        0.4186
     24 F         136.7123  137.6736  167.7436 F       1  UNL1       -0.1659
     25 F         137.7996  136.6707  166.2230 F       1  UNL1       -0.1659
     26 F         137.6934  139.4881  167.2484 F       1  UNL1       -0.1659
@<TRIPOS>BOND
     1     2     3    1
     2     3     1    1
     3     1    14    1
     4    14    15    2
     5    15    16    1
     6    16    17   ar
     7    17    18   ar
     8    18    19   ar
     9    19    23    1
    10    23    24    1
    11    23    25    1
    12    23    26    1
    13    19    20   ar
    14    20    21   ar
    15    21    22    1
    16     3     4    1
    17     4     5    1
    18     5     6   ar
    19     6     7   ar
    20     7     8   ar
    21     8     9   ar
    22     9    10   ar
    23     9    11    1
    24    11    12    1
    25    12    13    1
    26    21    16   ar
    27    10     5   ar
    28    13     8    1
