@<TRIPOS>MOLECULE
*****
 34 39 0 0 0
SMALL
GASTEIGER

@<TRIPOS>ATOM
      1 C         140.1768  140.8145  161.8705 C.3     1  UNL1        0.0339
      2 C         140.6102  141.6276  163.0542 C.ar    1  UNL1        0.0095
      3 C         141.4082  142.8814  162.8512 C.ar    1  UNL1        0.0730
      4 C         141.8416  143.6945  164.0348 C.ar    1  UNL1        0.1531
      5 F         142.6396  144.9484  163.8317 F       1  UNL1       -0.2029
      6 C         141.4770  143.2539  165.4215 C.ar    1  UNL1        0.0324
      7 C         140.6791  142.0001  165.6245 C.ar    1  UNL1        0.0211
      8 C         140.3145  141.5593  167.0112 C.ar    1  UNL1        0.0435
      9 C         139.5165  140.3056  167.2142 C.ar    1  UNL1        0.0639
     10 C         139.0831  139.4925  166.0306 C.ar    1  UNL1        0.2610
     11 O         138.2851  138.2386  166.2336 O.2     1  UNL1       -0.2670
     12 N         139.4477  139.9331  164.6439 N.ar    1  UNL1       -0.2976
     13 C         140.2457  141.1870  164.4408 C.ar    1  UNL1        0.0598
     14 C         140.7479  142.3724  168.1948 C.ar    1  UNL1        0.1804
     15 C         141.9898  142.1543  169.0073 C.ar    1  UNL1        0.1007
     16 C         142.0249  143.1935  170.0885 C.ar    1  UNL1        0.2610
     17 O         143.0928  143.3455  171.1309 O.3     1  UNL1       -0.4900
     18 N         140.8048  144.0539  169.9442 N.ar    1  UNL1       -0.0390
     19 O         140.0155  143.5465  168.7738 O.2     1  UNL1       -0.3504
     20 H         143.8225  142.7579  171.1432 H       1  UNL1        0.2938
     21 N         141.7728  143.3221  161.4644 N.pl3   1  UNL1       -0.3059
     22 C         142.9776  142.8810  160.6873 C.3     1  UNL1        0.0909
     23 C         142.9460  143.5676  159.3540 C.3     1  UNL1        0.0244
     24 C         141.7217  144.4330  159.3072 C.3     1  UNL1        0.0344
     25 C         140.9967  144.2813  160.6115 C.3     1  UNL1        0.0921
     26 C         141.2971  145.2983  158.1578 C.3     1  UNL1        0.0406
     27 N         142.5161  146.1609  158.0170 N.3     1  UNL1       -0.3231
     28 C         140.4491  145.8639  157.0574 C.3     1  UNL1        0.0156
     29 C         139.9307  144.7361  157.8995 C.3     1  UNL1        0.0156
     30 H         143.2066  145.8907  158.7174 H       1  UNL1        0.1188
     31 H         142.2584  147.1384  158.1530 H       1  UNL1        0.1188
     32 C         139.0143  139.1200  163.4602 C.3     1  UNL1        0.0885
     33 C         138.0155  138.8290  162.3797 C.3     1  UNL1        0.0246
     34 C         139.2624  138.0027  162.4907 C.3     1  UNL1        0.0246
@<TRIPOS>BOND
     1     1     2    1
     2     2     3   ar
     3     3    21    1
     4    21    22    1
     5    22    23    1
     6    23    24    1
     7    24    26    1
     8    26    27    1
     9    26    28    1
    10    28    29    1
    11    24    25    1
    12     3     4   ar
    13     4     5    1
    14     4     6   ar
    15     6     7   ar
    16     7     8   ar
    17     8    14    1
    18    14    15   ar
    19    15    16   ar
    20    16    17    1
    21    16    18   ar
    22    18    19   ar
    23     8     9   ar
    24     9    10   ar
    25    10    11    2
    26    10    12   ar
    27    12    32    1
    28    32    33    1
    29    33    34    1
    30    12    13   ar
    31    13     2   ar
    32    25    21    1
    33    13     7   ar
    34    29    26    1
    35    19    14   ar
    36    34    32    1
    37    27    30    1
    38    27    31    1
    39    17    20    1
@<TRIPOS>MOLECULE
*****
 34 39 0 0 0
SMALL
GASTEIGER

@<TRIPOS>ATOM
      1 C         142.1644  140.7767  162.0425 C.3     1  UNL1        0.0339
      2 C         141.7909  141.5791  163.2535 C.ar    1  UNL1        0.0095
      3 C         141.1314  142.9167  163.0928 C.ar    1  UNL1        0.0730
      4 C         140.7579  143.7191  164.3039 C.ar    1  UNL1        0.1531
      5 F         140.0984  145.0568  164.1431 F       1  UNL1       -0.2029
      6 C         141.0439  143.1840  165.6756 C.ar    1  UNL1        0.0324
      7 C         141.7034  141.8463  165.8363 C.ar    1  UNL1        0.0211
      8 C         141.9894  141.3111  167.2081 C.ar    1  UNL1        0.0435
      9 C         142.6489  139.9735  167.3688 C.ar    1  UNL1        0.0639
     10 C         143.0224  139.1711  166.1577 C.ar    1  UNL1        0.2610
     11 O         143.6819  137.8334  166.3185 O.2     1  UNL1       -0.2670
     12 N         142.7364  139.7063  164.7860 N.ar    1  UNL1       -0.2976
     13 C         142.0769  141.0439  164.6253 C.ar    1  UNL1        0.0598
     14 C         141.6159  142.1135  168.4192 C.ar    1  UNL1        0.1804
     15 C         140.2638  142.1540  169.0674 C.ar    1  UNL1        0.1007
     16 C         140.3412  143.0818  170.2435 C.ar    1  UNL1        0.2610
     17 O         139.2162  143.4177  171.1770 O.3     1  UNL1       -0.4900
     18 N         141.7411  143.6148  170.3221 N.ar    1  UNL1       -0.0390
     19 O         142.5289  143.0163  169.1946 O.2     1  UNL1       -0.3504
     20 H         138.3709  143.0342  171.0491 H       1  UNL1        0.2938
     21 N         140.8454  143.4520  161.7210 N.pl3   1  UNL1       -0.3059
     22 C         139.4991  143.5161  161.0626 C.3     1  UNL1        0.0909
     23 C         139.6771  144.1208  159.7015 C.3     1  UNL1        0.0244
     24 C         141.1334  144.4305  159.5187 C.3     1  UNL1        0.0344
     25 C         141.8554  144.0171  160.7668 C.3     1  UNL1        0.0921
     26 C         141.7579  145.0455  158.3014 C.3     1  UNL1        0.0406
     27 N         143.0976  144.3713  158.3273 N.3     1  UNL1       -0.3231
     28 C         141.9172  145.8946  157.0753 C.3     1  UNL1        0.0156
     29 C         140.6351  145.9332  157.8530 C.3     1  UNL1        0.0156
     30 H         143.1461  143.7419  159.1285 H       1  UNL1        0.1188
     31 H         143.8313  145.0758  158.4034 H       1  UNL1        0.1188
     32 C         143.1099  138.9039  163.5750 C.3     1  UNL1        0.0885
     33 C         144.1167  138.5178  162.5323 C.3     1  UNL1        0.0246
     34 C         142.7499  137.9001  162.5200 C.3     1  UNL1        0.0246
@<TRIPOS>BOND
     1     1     2    1
     2     2     3   ar
     3     3    21    1
     4    21    22    1
     5    22    23    1
     6    23    24    1
     7    24    26    1
     8    26    27    1
     9    26    28    1
    10    28    29    1
    11    24    25    1
    12     3     4   ar
    13     4     5    1
    14     4     6   ar
    15     6     7   ar
    16     7     8   ar
    17     8    14    1
    18    14    15   ar
    19    15    16   ar
    20    16    17    1
    21    16    18   ar
    22    18    19   ar
    23     8     9   ar
    24     9    10   ar
    25    10    11    2
    26    10    12   ar
    27    12    32    1
    28    32    33    1
    29    33    34    1
    30    12    13   ar
    31    13     2   ar
    32    25    21    1
    33    13     7   ar
    34    29    26    1
    35    19    14   ar
    36    34    32    1
    37    27    30    1
    38    27    31    1
    39    17    20    1
@<TRIPOS>MOLECULE
*****
 34 39 0 0 0
SMALL
GASTEIGER

@<TRIPOS>ATOM
      1 C         141.0391  139.9244  164.4456 C.3     1  UNL1        0.0339
      2 C         141.2165  141.2053  163.6854 C.ar    1  UNL1        0.0095
      3 C         141.5423  142.4731  164.4177 C.ar    1  UNL1        0.0730
      4 C         141.7198  143.7540  163.6575 C.ar    1  UNL1        0.1531
      5 F         142.0456  145.0219  164.3899 F       1  UNL1       -0.2029
      6 C         141.5715  143.7670  162.1650 C.ar    1  UNL1        0.0324
      7 C         141.2457  142.4991  161.4326 C.ar    1  UNL1        0.0211
      8 C         141.0974  142.5121  159.9400 C.ar    1  UNL1        0.0435
      9 C         140.7716  141.2442  159.2076 C.ar    1  UNL1        0.0639
     10 C         140.5941  139.9634  159.9679 C.ar    1  UNL1        0.2610
     11 O         140.2683  138.6955  159.2354 O.2     1  UNL1       -0.2670
     12 N         140.7424  139.9504  161.4604 N.ar    1  UNL1       -0.2976
     13 C         141.0682  141.2183  162.1928 C.ar    1  UNL1        0.0598
     14 C         141.2749  143.7929  159.1797 C.ar    1  UNL1        0.1804
     15 C         140.1826  144.5955  158.5372 C.ar    1  UNL1        0.1007
     16 C         140.8084  145.7946  157.8889 C.ar    1  UNL1        0.2610
     17 O         140.0826  146.8669  157.1318 O.3     1  UNL1       -0.4900
     18 N         142.2875  145.7332  158.1308 N.ar    1  UNL1       -0.0390
     19 O         142.5758  144.4961  158.9285 O.2     1  UNL1       -0.3504
     20 H         139.1521  146.8214  157.0312 H       1  UNL1        0.2938
     21 N         141.6907  142.4602  165.9104 N.pl3   1  UNL1       -0.3059
     22 C         142.9690  142.2541  166.6676 C.3     1  UNL1        0.0909
     23 C         142.6552  142.3176  168.1330 C.3     1  UNL1        0.0244
     24 C         141.1828  142.5629  168.2815 C.3     1  UNL1        0.0344
     25 C         140.5867  142.6510  166.9078 C.3     1  UNL1        0.0921
     26 C         140.4374  142.6966  169.5763 C.3     1  UNL1        0.0406
     27 N         140.8763  144.0703  169.9888 N.3     1  UNL1       -0.3231
     28 C         139.5395  142.3532  170.7277 C.3     1  UNL1        0.0156
     29 C         139.7396  141.3693  169.6133 C.3     1  UNL1        0.0156
     30 H         141.5107  144.4499  169.2860 H       1  UNL1        0.1188
     31 H         141.3562  144.0184  170.8874 H       1  UNL1        0.1188
     32 C         140.5649  138.6695  162.2206 C.3     1  UNL1        0.0885
     33 C         141.1494  137.4337  162.8381 C.3     1  UNL1        0.0246
     34 C         139.6731  137.6869  162.9199 C.3     1  UNL1        0.0246
@<TRIPOS>BOND
     1     1     2    1
     2     2     3   ar
     3     3    21    1
     4    21    22    1
     5    22    23    1
     6    23    24    1
     7    24    26    1
     8    26    27    1
     9    26    28    1
    10    28    29    1
    11    24    25    1
    12     3     4   ar
    13     4     5    1
    14     4     6   ar
    15     6     7   ar
    16     7     8   ar
    17     8    14    1
    18    14    15   ar
    19    15    16   ar
    20    16    17    1
    21    16    18   ar
    22    18    19   ar
    23     8     9   ar
    24     9    10   ar
    25    10    11    2
    26    10    12   ar
    27    12    32    1
    28    32    33    1
    29    33    34    1
    30    12    13   ar
    31    13     2   ar
    32    25    21    1
    33    13     7   ar
    34    29    26    1
    35    19    14   ar
    36    34    32    1
    37    27    30    1
    38    27    31    1
    39    17    20    1
@<TRIPOS>MOLECULE
*****
 34 39 0 0 0
SMALL
GASTEIGER

@<TRIPOS>ATOM
      1 C         142.3470  142.5633  164.7203 C.3     1  UNL1        0.0339
      2 C         142.0987  141.4118  163.7916 C.ar    1  UNL1        0.0095
      3 C         141.9352  140.0261  164.3420 C.ar    1  UNL1        0.0730
      4 C         141.6870  138.8746  163.4133 C.ar    1  UNL1        0.1531
      5 F         141.5235  137.4888  163.9638 F       1  UNL1       -0.2029
      6 C         141.6023  139.1088  161.9342 C.ar    1  UNL1        0.0324
      7 C         141.7658  140.4946  161.3838 C.ar    1  UNL1        0.0211
      8 C         141.6811  140.7289  159.9045 C.ar    1  UNL1        0.0435
      9 C         141.8446  142.1146  159.3541 C.ar    1  UNL1        0.0639
     10 C         142.0928  143.2660  160.2828 C.ar    1  UNL1        0.2610
     11 O         142.2563  144.6518  159.7323 O.2     1  UNL1       -0.2670
     12 N         142.1775  143.0318  161.7620 N.ar    1  UNL1       -0.2976
     13 C         142.0140  141.6460  162.3125 C.ar    1  UNL1        0.0598
     14 C         141.4329  139.5774  158.9758 C.ar    1  UNL1        0.1804
     15 C         140.0955  139.1276  158.4669 C.ar    1  UNL1        0.1007
     16 C         140.3145  137.9457  157.5695 C.ar    1  UNL1        0.2610
     17 O         139.2479  137.1792  156.8451 O.3     1  UNL1       -0.4900
     18 N         141.7873  137.6651  157.5238 N.ar    1  UNL1       -0.0390
     19 O         142.4785  138.6735  158.3930 O.2     1  UNL1       -0.3504
     20 H         138.3492  137.4287  156.9341 H       1  UNL1        0.2938
     21 N         142.0200  139.7918  165.8213 N.pl3   1  UNL1       -0.3059
     22 C         143.1779  139.1793  166.5520 C.3     1  UNL1        0.0909
     23 C         142.8353  139.1378  168.0117 C.3     1  UNL1        0.0244
     24 C         141.4655  139.7246  168.1831 C.3     1  UNL1        0.0344
     25 C         140.9616  140.1288  166.8294 C.3     1  UNL1        0.0921
     26 C         140.7289  139.8800  169.4806 C.3     1  UNL1        0.0406
     27 N         141.7316  139.2824  170.4225 N.3     1  UNL1       -0.3231
     28 C         139.6440  140.2428  170.4508 C.3     1  UNL1        0.0156
     29 C         139.4703  140.5314  168.9891 C.3     1  UNL1        0.0156
     30 H         142.5518  138.9783  169.8979 H       1  UNL1        0.1188
     31 H         141.3161  138.4815  170.8982 H       1  UNL1        0.1188
     32 C         142.4258  144.1833  162.6907 C.3     1  UNL1        0.0885
     33 C         141.9019  145.2993  163.5451 C.3     1  UNL1        0.0246
     34 C         143.3796  145.0616  163.4448 C.3     1  UNL1        0.0246
@<TRIPOS>BOND
     1     1     2    1
     2     2     3   ar
     3     3    21    1
     4    21    22    1
     5    22    23    1
     6    23    24    1
     7    24    26    1
     8    26    27    1
     9    26    28    1
    10    28    29    1
    11    24    25    1
    12     3     4   ar
    13     4     5    1
    14     4     6   ar
    15     6     7   ar
    16     7     8   ar
    17     8    14    1
    18    14    15   ar
    19    15    16   ar
    20    16    17    1
    21    16    18   ar
    22    18    19   ar
    23     8     9   ar
    24     9    10   ar
    25    10    11    2
    26    10    12   ar
    27    12    32    1
    28    32    33    1
    29    33    34    1
    30    12    13   ar
    31    13     2   ar
    32    25    21    1
    33    13     7   ar
    34    29    26    1
    35    19    14   ar
    36    34    32    1
    37    27    30    1
    38    27    31    1
    39    17    20    1
@<TRIPOS>MOLECULE
*****
 34 39 0 0 0
SMALL
GASTEIGER

@<TRIPOS>ATOM
      1 C         142.4528  141.4082  162.1894 C.3     1  UNL1        0.0339
      2 C         141.6440  141.0810  163.4096 C.ar    1  UNL1        0.0095
      3 C         140.3943  140.2611  163.2833 C.ar    1  UNL1        0.0730
      4 C         139.5855  139.9339  164.5035 C.ar    1  UNL1        0.1531
      5 F         138.3357  139.1139  164.3772 F       1  UNL1       -0.2029
      6 C         140.0263  140.4267  165.8499 C.ar    1  UNL1        0.0324
      7 C         141.2760  141.2466  165.9761 C.ar    1  UNL1        0.0211
      8 C         141.7169  141.7395  167.3225 C.ar    1  UNL1        0.0435
      9 C         142.9665  142.5594  167.4488 C.ar    1  UNL1        0.0639
     10 C         143.7754  142.8866  166.2286 C.ar    1  UNL1        0.2610
     11 O         145.0251  143.7066  166.3549 O.2     1  UNL1       -0.2670
     12 N         143.3345  142.3938  164.8822 N.ar    1  UNL1       -0.2976
     13 C         142.0848  141.5738  164.7559 C.ar    1  UNL1        0.0598
     14 C         140.9081  141.4123  168.5427 C.ar    1  UNL1        0.1804
     15 C         140.9346  140.1158  169.2966 C.ar    1  UNL1        0.1007
     16 C         139.9736  140.2264  170.4430 C.ar    1  UNL1        0.2610
     17 O         139.6840  139.1595  171.4567 O.3     1  UNL1       -0.4900
     18 N         139.3531  141.5913  170.3977 N.ar    1  UNL1       -0.0390
     19 O         139.9307  142.3242  169.2232 O.2     1  UNL1       -0.3504
     20 H         140.1223  138.3329  171.4052 H       1  UNL1        0.2938
     21 N         139.9534  139.7682  161.9369 N.pl3   1  UNL1       -0.3059
     22 C         139.8751  138.3338  161.5053 C.3     1  UNL1        0.0909
     23 C         139.3868  138.3023  160.0874 C.3     1  UNL1        0.0244
     24 C         139.1632  139.7173  159.6427 C.3     1  UNL1        0.0344
     25 C         139.5134  140.6233  160.7857 C.3     1  UNL1        0.0921
     26 C         138.6751  140.1503  158.2920 C.3     1  UNL1        0.0406
     27 N         139.0097  138.9278  157.4899 N.3     1  UNL1       -0.3231
     28 C         138.0707  141.0079  157.2200 C.3     1  UNL1        0.0156
     29 C         138.1709  141.5232  158.6251 C.3     1  UNL1        0.0156
     30 H         139.4412  138.2307  158.0967 H       1  UNL1        0.1188
     31 H         139.6590  139.1778  156.7440 H       1  UNL1        0.1188
     32 C         144.1434  142.7209  163.6621 C.3     1  UNL1        0.0885
     33 C         144.4640  143.6461  162.5258 C.3     1  UNL1        0.0246
     34 C         145.2236  142.3624  162.6851 C.3     1  UNL1        0.0246
@<TRIPOS>BOND
     1     1     2    1
     2     2     3   ar
     3     3    21    1
     4    21    22    1
     5    22    23    1
     6    23    24    1
     7    24    26    1
     8    26    27    1
     9    26    28    1
    10    28    29    1
    11    24    25    1
    12     3     4   ar
    13     4     5    1
    14     4     6   ar
    15     6     7   ar
    16     7     8   ar
    17     8    14    1
    18    14    15   ar
    19    15    16   ar
    20    16    17    1
    21    16    18   ar
    22    18    19   ar
    23     8     9   ar
    24     9    10   ar
    25    10    11    2
    26    10    12   ar
    27    12    32    1
    28    32    33    1
    29    33    34    1
    30    12    13   ar
    31    13     2   ar
    32    25    21    1
    33    13     7   ar
    34    29    26    1
    35    19    14   ar
    36    34    32    1
    37    27    30    1
    38    27    31    1
    39    17    20    1
@<TRIPOS>MOLECULE
*****
 34 39 0 0 0
SMALL
GASTEIGER

@<TRIPOS>ATOM
      1 C         140.0649  141.2981  164.2783 C.3     1  UNL1        0.0339
      2 C         141.2582  141.1909  163.3759 C.ar    1  UNL1        0.0095
      3 C         142.5667  140.6974  163.9182 C.ar    1  UNL1        0.0730
      4 C         143.7601  140.5903  163.0158 C.ar    1  UNL1        0.1531
      5 F         145.0687  140.0967  163.5582 F       1  UNL1       -0.2029
      6 C         143.6450  140.9767  161.5711 C.ar    1  UNL1        0.0324
      7 C         142.3365  141.4702  161.0287 C.ar    1  UNL1        0.0211
      8 C         142.2213  141.8566  159.5839 C.ar    1  UNL1        0.0435
      9 C         140.9128  142.3502  159.0416 C.ar    1  UNL1        0.0639
     10 C         139.7194  142.4573  159.9440 C.ar    1  UNL1        0.2610
     11 O         138.4109  142.9509  159.4016 O.2     1  UNL1       -0.2670
     12 N         139.8345  142.0709  161.3887 N.ar    1  UNL1       -0.2976
     13 C         141.1431  141.5773  161.9311 C.ar    1  UNL1        0.0598
     14 C         143.4147  141.7495  158.6815 C.ar    1  UNL1        0.1804
     15 C         143.7985  140.5506  157.8658 C.ar    1  UNL1        0.1007
     16 C         145.0548  140.8826  157.1165 C.ar    1  UNL1        0.2610
     17 O         145.7894  139.9706  156.1792 O.3     1  UNL1       -0.4900
     18 N         145.4475  142.2867  157.4690 N.ar    1  UNL1       -0.0390
     19 O         144.4338  142.8225  158.4362 O.2     1  UNL1       -0.3504
     20 H         145.4676  139.1053  156.0191 H       1  UNL1        0.2938
     21 N         142.6819  140.3109  165.3631 N.pl3   1  UNL1       -0.3059
     22 C         142.7798  138.9124  165.8966 C.3     1  UNL1        0.0909
     23 C         142.8778  138.9923  167.3912 C.3     1  UNL1        0.0244
     24 C         142.8406  140.4402  167.7815 C.3     1  UNL1        0.0344
     25 C         142.7195  141.2551  166.5280 C.3     1  UNL1        0.0921
     26 C         142.9118  140.9786  169.1797 C.3     1  UNL1        0.0406
     27 N         142.9284  139.6935  169.9531 N.3     1  UNL1       -0.3231
     28 C         142.9774  141.9633  170.3093 C.3     1  UNL1        0.0156
     29 C         142.9201  142.4507  168.8919 C.3     1  UNL1        0.0156
     30 H         142.8876  138.9064  169.3056 H       1  UNL1        0.1188
     31 H         142.1225  139.6621  170.5776 H       1  UNL1        0.1188
     32 C         138.6412  142.1780  162.2912 C.3     1  UNL1        0.0885
     33 C         137.7685  142.9923  163.1996 C.3     1  UNL1        0.0246
     34 C         137.4469  141.5493  162.9457 C.3     1  UNL1        0.0246
@<TRIPOS>BOND
     1     1     2    1
     2     2     3   ar
     3     3    21    1
     4    21    22    1
     5    22    23    1
     6    23    24    1
     7    24    26    1
     8    26    27    1
     9    26    28    1
    10    28    29    1
    11    24    25    1
    12     3     4   ar
    13     4     5    1
    14     4     6   ar
    15     6     7   ar
    16     7     8   ar
    17     8    14    1
    18    14    15   ar
    19    15    16   ar
    20    16    17    1
    21    16    18   ar
    22    18    19   ar
    23     8     9   ar
    24     9    10   ar
    25    10    11    2
    26    10    12   ar
    27    12    32    1
    28    32    33    1
    29    33    34    1
    30    12    13   ar
    31    13     2   ar
    32    25    21    1
    33    13     7   ar
    34    29    26    1
    35    19    14   ar
    36    34    32    1
    37    27    30    1
    38    27    31    1
    39    17    20    1
@<TRIPOS>MOLECULE
*****
 34 39 0 0 0
SMALL
GASTEIGER

@<TRIPOS>ATOM
      1 C         142.7105  141.3977  164.8084 C.3     1  UNL1        0.0339
      2 C         141.5297  141.2831  163.8904 C.ar    1  UNL1        0.0095
      3 C         140.1680  140.9999  164.4520 C.ar    1  UNL1        0.0730
      4 C         138.9872  140.8853  163.5341 C.ar    1  UNL1        0.1531
      5 F         137.6253  140.6020  164.0957 F       1  UNL1       -0.2029
      6 C         139.1681  141.0538  162.0546 C.ar    1  UNL1        0.0324
      7 C         140.5299  141.3371  161.4931 C.ar    1  UNL1        0.0211
      8 C         140.7109  141.5057  160.0136 C.ar    1  UNL1        0.0435
      9 C         142.0726  141.7889  159.4521 C.ar    1  UNL1        0.0639
     10 C         143.2534  141.9035  160.3700 C.ar    1  UNL1        0.2610
     11 O         144.6153  142.1867  159.8084 O.2     1  UNL1       -0.2670
     12 N         143.0725  141.7349  161.8494 N.ar    1  UNL1       -0.2976
     13 C         141.7107  141.4517  162.4110 C.ar    1  UNL1        0.0598
     14 C         139.5301  141.3910  159.0957 C.ar    1  UNL1        0.1804
     15 C         138.8085  142.5314  158.4407 C.ar    1  UNL1        0.1007
     16 C         137.6960  141.9611  157.6118 C.ar    1  UNL1        0.2610
     17 O         136.7207  142.7458  156.7853 O.3     1  UNL1       -0.4900
     18 N         137.7300  140.4683  157.7545 N.ar    1  UNL1       -0.0390
     19 O         138.8635  140.1160  158.6715 O.2     1  UNL1       -0.3504
     20 H         136.7767  143.6807  156.7567 H       1  UNL1        0.2938
     21 N         139.9870  140.8313  165.9315 N.pl3   1  UNL1       -0.3059
     22 C         139.6176  139.5591  166.6352 C.3     1  UNL1        0.0909
     23 C         139.5459  139.8468  168.1056 C.3     1  UNL1        0.0244
     24 C         139.8709  141.2967  168.3106 C.3     1  UNL1        0.0344
     25 C         140.1435  141.9052  166.9670 C.3     1  UNL1        0.0921
     26 C         139.9155  142.0126  169.6281 C.3     1  UNL1        0.0406
     27 N         139.4026  140.9297  170.5304 N.3     1  UNL1       -0.3231
     28 C         140.1383  143.1045  170.6321 C.3     1  UNL1        0.0156
     29 C         140.4440  143.3441  169.1832 C.3     1  UNL1        0.0156
     30 H         139.1993  140.0958  169.9792 H       1  UNL1        0.1188
     31 H         138.5508  141.2476  170.9929 H       1  UNL1        0.1188
     32 C         144.2533  141.8495  162.7673 C.3     1  UNL1        0.0885
     33 C         145.4782  141.2475  163.3895 C.3     1  UNL1        0.0246
     34 C         145.0735  142.6500  163.7350 C.3     1  UNL1        0.0246
@<TRIPOS>BOND
     1     1     2    1
     2     2     3   ar
     3     3    21    1
     4    21    22    1
     5    22    23    1
     6    23    24    1
     7    24    26    1
     8    26    27    1
     9    26    28    1
    10    28    29    1
    11    24    25    1
    12     3     4   ar
    13     4     5    1
    14     4     6   ar
    15     6     7   ar
    16     7     8   ar
    17     8    14    1
    18    14    15   ar
    19    15    16   ar
    20    16    17    1
    21    16    18   ar
    22    18    19   ar
    23     8     9   ar
    24     9    10   ar
    25    10    11    2
    26    10    12   ar
    27    12    32    1
    28    32    33    1
    29    33    34    1
    30    12    13   ar
    31    13     2   ar
    32    25    21    1
    33    13     7   ar
    34    29    26    1
    35    19    14   ar
    36    34    32    1
    37    27    30    1
    38    27    31    1
    39    17    20    1
@<TRIPOS>MOLECULE
*****
 34 39 0 0 0
SMALL
GASTEIGER

@<TRIPOS>ATOM
      1 C         140.2581  139.2353  163.4333 C.3     1  UNL1        0.0339
      2 C         141.4774  139.6073  162.6428 C.ar    1  UNL1        0.0095
      3 C         142.7860  139.8278  163.3418 C.ar    1  UNL1        0.0730
      4 C         144.0053  140.1999  162.5512 C.ar    1  UNL1        0.1531
      5 F         145.3140  140.4204  163.2504 F       1  UNL1       -0.2029
      6 C         143.9159  140.3513  161.0616 C.ar    1  UNL1        0.0324
      7 C         142.6072  140.1307  160.3626 C.ar    1  UNL1        0.0211
      8 C         142.5178  140.2821  158.8729 C.ar    1  UNL1        0.0435
      9 C         141.2091  140.0615  158.1738 C.ar    1  UNL1        0.0639
     10 C         139.9899  139.6895  158.9644 C.ar    1  UNL1        0.2610
     11 O         138.6812  139.4689  158.2653 O.2     1  UNL1       -0.2670
     12 N         140.0793  139.5381  160.4540 N.ar    1  UNL1       -0.2976
     13 C         141.3880  139.7587  161.1531 C.ar    1  UNL1        0.0598
     14 C         143.7371  140.6541  158.0823 C.ar    1  UNL1        0.1804
     15 C         144.3949  142.0020  158.0581 C.ar    1  UNL1        0.1007
     16 C         145.5770  141.9245  157.1380 C.ar    1  UNL1        0.2610
     17 O         146.5206  143.0459  156.8185 O.3     1  UNL1       -0.4900
     18 N         145.6497  140.5287  156.5934 N.ar    1  UNL1       -0.0390
     19 O         144.5126  139.7436  157.1770 O.2     1  UNL1       -0.3504
     20 H         146.3957  143.8887  157.2084 H       1  UNL1        0.2938
     21 N         142.8755  139.6764  164.8315 N.pl3   1  UNL1       -0.3059
     22 C         143.2014  138.4129  165.5713 C.3     1  UNL1        0.0909
     23 C         143.1821  138.7174  167.0399 C.3     1  UNL1        0.0244
     24 C         142.8442  140.1693  167.2078 C.3     1  UNL1        0.0344
     25 C         142.6548  140.7619  165.8429 C.3     1  UNL1        0.0921
     26 C         142.7180  140.9001  168.5116 C.3     1  UNL1        0.0406
     27 N         142.1801  139.7989  169.3764 N.3     1  UNL1       -0.3231
     28 C         142.7787  142.0134  169.5151 C.3     1  UNL1        0.0156
     29 C         143.2122  142.2551  168.0995 C.3     1  UNL1        0.0156
     30 H         142.0795  138.9491  168.8214 H       1  UNL1        0.1188
     31 H         141.2703  140.0720  169.7480 H       1  UNL1        0.1188
     32 C         138.8600  139.1661  161.2446 C.3     1  UNL1        0.0885
     33 C         137.6473  139.5705  162.0292 C.3     1  UNL1        0.0246
     34 C         137.9610  138.1174  161.8293 C.3     1  UNL1        0.0246
@<TRIPOS>BOND
     1     1     2    1
     2     2     3   ar
     3     3    21    1
     4    21    22    1
     5    22    23    1
     6    23    24    1
     7    24    26    1
     8    26    27    1
     9    26    28    1
    10    28    29    1
    11    24    25    1
    12     3     4   ar
    13     4     5    1
    14     4     6   ar
    15     6     7   ar
    16     7     8   ar
    17     8    14    1
    18    14    15   ar
    19    15    16   ar
    20    16    17    1
    21    16    18   ar
    22    18    19   ar
    23     8     9   ar
    24     9    10   ar
    25    10    11    2
    26    10    12   ar
    27    12    32    1
    28    32    33    1
    29    33    34    1
    30    12    13   ar
    31    13     2   ar
    32    25    21    1
    33    13     7   ar
    34    29    26    1
    35    19    14   ar
    36    34    32    1
    37    27    30    1
    38    27    31    1
    39    17    20    1
@<TRIPOS>MOLECULE
*****
 34 39 0 0 0
SMALL
GASTEIGER

@<TRIPOS>ATOM
      1 C         142.4875  139.9590  163.6171 C.3     1  UNL1        0.0339
      2 C         142.2654  141.2872  162.9564 C.ar    1  UNL1        0.0095
      3 C         142.0722  142.5176  163.7922 C.ar    1  UNL1        0.0730
      4 C         141.8502  143.8459  163.1316 C.ar    1  UNL1        0.1531
      5 F         141.6570  145.0764  163.9675 F       1  UNL1       -0.2029
      6 C         141.8213  143.9437  161.6351 C.ar    1  UNL1        0.0324
      7 C         142.0145  142.7132  160.7992 C.ar    1  UNL1        0.0211
      8 C         141.9857  142.8110  159.3027 C.ar    1  UNL1        0.0435
      9 C         142.1789  141.5806  158.4668 C.ar    1  UNL1        0.0639
     10 C         142.4009  140.2523  159.1275 C.ar    1  UNL1        0.2610
     11 O         142.5941  139.0218  158.2916 O.2     1  UNL1       -0.2670
     12 N         142.4298  140.1545  160.6240 N.ar    1  UNL1       -0.2976
     13 C         142.2366  141.3850  161.4599 C.ar    1  UNL1        0.0598
     14 C         141.7636  144.1392  158.6420 C.ar    1  UNL1        0.1804
     15 C         140.4355  144.7246  158.2633 C.ar    1  UNL1        0.1007
     16 C         140.6818  146.0624  157.6313 C.ar    1  UNL1        0.2610
     17 O         139.6320  146.9950  157.1038 O.3     1  UNL1       -0.4900
     18 N         142.1621  146.3040  157.6193 N.ar    1  UNL1       -0.0390
     19 O         142.8307  145.1154  158.2440 O.2     1  UNL1       -0.3504
     20 H         138.7268  146.7582  157.1544 H       1  UNL1        0.2938
     21 N         142.1011  142.4199  165.2888 N.pl3   1  UNL1       -0.3059
     22 C         143.3312  142.3839  166.1465 C.3     1  UNL1        0.0909
     23 C         142.8953  142.2827  167.5782 C.3     1  UNL1        0.0244
     24 C         141.3958  142.2562  167.6053 C.3     1  UNL1        0.0344
     25 C         140.9049  142.3409  166.1905 C.3     1  UNL1        0.0921
     26 C         140.5377  142.1615  168.8321 C.3     1  UNL1        0.0406
     27 N         140.0160  140.7637  168.6777 N.3     1  UNL1       -0.3231
     28 C         139.8609  142.5523  170.1123 C.3     1  UNL1        0.0156
     29 C         140.7616  143.5264  169.4124 C.3     1  UNL1        0.0156
     30 H         140.3973  140.3505  167.8266 H       1  UNL1        0.1188
     31 H         138.9979  140.7854  168.6185 H       1  UNL1        0.1188
     32 C         142.6518  138.8263  161.2847 C.3     1  UNL1        0.0885
     33 C         143.5806  137.7352  161.7282 C.3     1  UNL1        0.0246
     34 C         142.1076  137.6169  161.9854 C.3     1  UNL1        0.0246
@<TRIPOS>BOND
     1     1     2    1
     2     2     3   ar
     3     3    21    1
     4    21    22    1
     5    22    23    1
     6    23    24    1
     7    24    26    1
     8    26    27    1
     9    26    28    1
    10    28    29    1
    11    24    25    1
    12     3     4   ar
    13     4     5    1
    14     4     6   ar
    15     6     7   ar
    16     7     8   ar
    17     8    14    1
    18    14    15   ar
    19    15    16   ar
    20    16    17    1
    21    16    18   ar
    22    18    19   ar
    23     8     9   ar
    24     9    10   ar
    25    10    11    2
    26    10    12   ar
    27    12    32    1
    28    32    33    1
    29    33    34    1
    30    12    13   ar
    31    13     2   ar
    32    25    21    1
    33    13     7   ar
    34    29    26    1
    35    19    14   ar
    36    34    32    1
    37    27    30    1
    38    27    31    1
    39    17    20    1
