@<TRIPOS>MOLECULE
*****
 36 39 0 0 0
SMALL
GASTEIGER

@<TRIPOS>ATOM
      1 N         138.0746  140.4519  161.6804 N.3     1  UNL1       -0.2685
      2 C         139.1753  140.9023  160.7663 C.3     1  UNL1        0.1035
      3 C         139.9326  142.1613  161.0681 C.3     1  UNL1        0.1470
      4 C         140.6900  143.4205  161.3698 C.3     1  UNL1        0.1036
      5 N         140.3467  144.2292  162.5855 N.3     1  UNL1       -0.2653
      6 C         139.2459  143.7787  163.4996 C.3     1  UNL1        0.1036
      7 C         138.4886  142.5196  163.1979 C.3     1  UNL1        0.1470
      8 C         137.7312  141.2605  162.8962 C.3     1  UNL1        0.1035
      9 O         139.5893  142.9700  162.2838 O.3     1  UNL1       -0.3530
     10 C         137.3172  139.1927  161.3787 C.3     1  UNL1        0.0737
     11 C         137.8800  137.8632  161.7855 C.3     1  UNL1        0.0362
     12 C         138.8586  137.7781  162.9192 C.3     1  UNL1        0.0929
     13 N         140.2139  138.4074  162.7889 N.3     1  UNL1       -0.1793
     14 H         140.8636  137.6595  162.5460 H       1  UNL1        0.1488
     15 S         140.8144  139.1423  163.9504 S.O2    1  UNL1        0.0602
     16 O         139.6808  138.6903  164.8224 O.2     1  UNL1       -0.1530
     17 O         141.9480  139.5944  163.0783 O.2     1  UNL1       -0.1530
     18 C         142.6159  141.3474  167.4350 C.ar    1  UNL1        0.0685
     19 C         142.7623  139.8581  167.3332 C.ar    1  UNL1        0.0116
     20 C         142.1618  139.1230  166.1717 C.ar    1  UNL1        0.0206
     21 C         141.4149  139.8774  165.1120 C.ar    1  UNL1        0.1220
     22 C         141.2685  141.3667  165.2137 C.ar    1  UNL1        0.0206
     23 C         141.8690  142.1018  166.3752 C.ar    1  UNL1        0.0116
     24 N         143.8169  142.8175  169.7580 N.1     1  UNL1       -0.1908
     25 C         143.2164  142.0825  168.5965 C.1     1  UNL1        0.1004
     26 C         141.1040  145.4883  162.8873 C.3     1  UNL1        0.1202
     27 C         142.3238  145.4392  163.7590 C.3     1  UNL1        0.2229
     28 O         143.6606  145.1152  163.1607 O.3     1  UNL1       -0.4694
     29 C         144.1740  143.7061  163.1907 C.ar    1  UNL1        0.1930
     30 C         144.6430  143.1061  164.4830 C.ar    1  UNL1        0.1761
     31 F         144.5986  143.9152  165.7453 F       1  UNL1       -0.2009
     32 C         145.1564  141.6970  164.5130 C.ar    1  UNL1        0.0329
     33 C         145.2008  140.8879  163.2507 C.ar    1  UNL1        0.0048
     34 C         144.7318  141.4879  161.9584 C.ar    1  UNL1        0.0329
     35 C         144.2184  142.8970  161.9284 C.ar    1  UNL1        0.1761
     36 F         143.7494  143.4970  160.6361 F       1  UNL1       -0.2009
@<TRIPOS>BOND
     1    24    25    3
     2    25    18    1
     3    18    19   ar
     4    19    20   ar
     5    20    21   ar
     6    21    15    1
     7    15    16    2
     8    15    17    2
     9    15    13    1
    10    13    12    1
    11    12    11    1
    12    11    10    1
    13    10     1    1
    14     1     2    1
    15     2     3    1
    16     3     4    1
    17     4     5    1
    18     5    26    1
    19    26    27    1
    20    27    28    1
    21    28    29    1
    22    29    30   ar
    23    30    31    1
    24    30    32   ar
    25    32    33   ar
    26    33    34   ar
    27    34    35   ar
    28    35    36    1
    29     5     6    1
    30     6     7    1
    31     7     8    1
    32     7     9    1
    33    21    22   ar
    34    22    23   ar
    35    23    18   ar
    36     8     1    1
    37     9     3    1
    38    35    29   ar
    39    13    14    1
@<TRIPOS>MOLECULE
*****
 36 39 0 0 0
SMALL
GASTEIGER

@<TRIPOS>ATOM
      1 N         138.3351  140.5143  161.6327 N.3     1  UNL1       -0.2685
      2 C         139.5119  140.8392  160.7613 C.3     1  UNL1        0.1035
      3 C         140.3655  142.0337  161.0684 C.3     1  UNL1        0.1470
      4 C         141.2191  143.2284  161.3756 C.3     1  UNL1        0.1036
      5 N         140.8958  144.0981  162.5541 N.3     1  UNL1       -0.2653
      6 C         139.7188  143.7733  163.4255 C.3     1  UNL1        0.1036
      7 C         138.8653  142.5787  163.1184 C.3     1  UNL1        0.1470
      8 C         138.0117  141.3841  162.8112 C.3     1  UNL1        0.1035
      9 O         140.0422  142.9035  162.2470 O.3     1  UNL1       -0.3530
     10 C         137.4814  139.3197  161.3256 C.3     1  UNL1        0.0737
     11 C         137.9925  137.9390  161.6126 C.3     1  UNL1        0.0362
     12 C         138.6660  137.6453  162.9204 C.3     1  UNL1        0.0929
     13 N         139.8815  138.4232  163.3293 N.3     1  UNL1       -0.1793
     14 H         140.6892  137.8317  163.1339 H       1  UNL1        0.1488
     15 S         140.0260  138.8997  164.7443 S.O2    1  UNL1        0.0602
     16 O         141.2271  139.7069  164.3498 O.2     1  UNL1       -0.1530
     17 O         138.8249  138.0924  165.1388 O.2     1  UNL1       -0.1530
     18 C         140.4593  140.3289  168.9892 C.ar    1  UNL1        0.0685
     19 C         141.6614  140.2597  168.0947 C.ar    1  UNL1        0.0116
     20 C         141.5170  139.7833  166.6798 C.ar    1  UNL1        0.0206
     21 C         140.1705  139.3761  166.1593 C.ar    1  UNL1        0.1220
     22 C         138.9684  139.4452  167.0538 C.ar    1  UNL1        0.0206
     23 C         139.1128  139.9216  168.4688 C.ar    1  UNL1        0.0116
     24 N         140.7482  141.2817  171.8192 N.1     1  UNL1       -0.1908
     25 C         140.6038  140.8053  170.4042 C.1     1  UNL1        0.1004
     26 C         141.7493  145.2927  162.8612 C.3     1  UNL1        0.1202
     27 C         142.7995  145.2096  163.9292 C.3     1  UNL1        0.2229
     28 O         144.1467  144.6310  163.6128 O.3     1  UNL1       -0.4694
     29 C         144.3265  143.1434  163.5437 C.ar    1  UNL1        0.1930
     30 C         144.5534  142.4760  162.2197 C.ar    1  UNL1        0.1761
     31 F         144.6004  143.2962  160.9647 F       1  UNL1       -0.2009
     32 C         144.7333  140.9884  162.1506 C.ar    1  UNL1        0.0329
     33 C         144.6863  140.1682  163.4056 C.ar    1  UNL1        0.0048
     34 C         144.4594  140.8356  164.7297 C.ar    1  UNL1        0.0329
     35 C         144.2796  142.3232  164.7988 C.ar    1  UNL1        0.1761
     36 F         144.0527  142.9905  166.1228 F       1  UNL1       -0.2009
@<TRIPOS>BOND
     1    24    25    3
     2    25    18    1
     3    18    19   ar
     4    19    20   ar
     5    20    21   ar
     6    21    15    1
     7    15    16    2
     8    15    17    2
     9    15    13    1
    10    13    12    1
    11    12    11    1
    12    11    10    1
    13    10     1    1
    14     1     2    1
    15     2     3    1
    16     3     4    1
    17     4     5    1
    18     5    26    1
    19    26    27    1
    20    27    28    1
    21    28    29    1
    22    29    30   ar
    23    30    31    1
    24    30    32   ar
    25    32    33   ar
    26    33    34   ar
    27    34    35   ar
    28    35    36    1
    29     5     6    1
    30     6     7    1
    31     7     8    1
    32     7     9    1
    33    21    22   ar
    34    22    23   ar
    35    23    18   ar
    36     8     1    1
    37     9     3    1
    38    35    29   ar
    39    13    14    1
@<TRIPOS>MOLECULE
*****
 36 39 0 0 0
SMALL
GASTEIGER

@<TRIPOS>ATOM
      1 N         143.3696  140.3245  160.5724 N.3     1  UNL1       -0.2685
      2 C         143.9321  141.4750  161.3534 C.3     1  UNL1        0.1035
      3 C         143.2163  142.7931  161.3675 C.3     1  UNL1        0.1470
      4 C         142.5005  144.1113  161.3816 C.3     1  UNL1        0.1036
      5 N         141.2222  144.2788  160.6148 N.3     1  UNL1       -0.2653
      6 C         140.6598  143.1282  159.8338 C.3     1  UNL1        0.1036
      7 C         141.3756  141.8101  159.8197 C.3     1  UNL1        0.1470
      8 C         142.0914  140.4921  159.8056 C.3     1  UNL1        0.1035
      9 O         141.9380  142.9607  160.6007 O.3     1  UNL1       -0.3530
     10 C         144.0854  139.0063  160.5583 C.3     1  UNL1        0.0737
     11 C         143.6922  137.9289  161.5250 C.3     1  UNL1        0.0362
     12 C         143.3232  138.2844  162.9348 C.3     1  UNL1        0.0929
     13 N         141.9011  138.6169  163.2768 N.3     1  UNL1       -0.1793
     14 H         141.4971  139.0636  162.4536 H       1  UNL1        0.1488
     15 S         141.5994  139.5081  164.4450 S.O2    1  UNL1        0.0602
     16 O         142.9428  140.1584  164.2959 O.2     1  UNL1       -0.1530
     17 O         140.2560  138.8577  164.5941 O.2     1  UNL1       -0.1530
     18 C         140.6941  142.1815  167.9497 C.ar    1  UNL1        0.0685
     19 C         140.0508  140.8300  167.8515 C.ar    1  UNL1        0.0116
     20 C         140.3525  139.9389  166.6833 C.ar    1  UNL1        0.0206
     21 C         141.2976  140.3992  165.6133 C.ar    1  UNL1        0.1220
     22 C         141.9409  141.7507  165.7115 C.ar    1  UNL1        0.0206
     23 C         141.6392  142.6418  166.8798 C.ar    1  UNL1        0.0116
     24 N         140.0906  143.9637  170.2863 N.1     1  UNL1       -0.1908
     25 C         140.3923  143.0726  169.1180 C.1     1  UNL1        0.1004
     26 C         140.5064  145.5969  160.6289 C.3     1  UNL1        0.1202
     27 C         139.7250  146.0131  161.8398 C.3     1  UNL1        0.2229
     28 O         138.3720  145.4198  162.0997 O.3     1  UNL1       -0.4694
     29 C         138.2518  144.1262  162.8493 C.ar    1  UNL1        0.1930
     30 C         137.8796  142.8690  162.1207 C.ar    1  UNL1        0.1761
     31 F         137.6277  142.9054  160.6425 F       1  UNL1       -0.2009
     32 C         137.7594  141.5752  162.8703 C.ar    1  UNL1        0.0329
     33 C         138.0114  141.5388  164.3485 C.ar    1  UNL1        0.0048
     34 C         138.3836  142.7960  165.0772 C.ar    1  UNL1        0.0329
     35 C         138.5038  144.0897  164.3276 C.ar    1  UNL1        0.1761
     36 F         138.8760  145.3469  165.0562 F       1  UNL1       -0.2009
@<TRIPOS>BOND
     1    24    25    3
     2    25    18    1
     3    18    19   ar
     4    19    20   ar
     5    20    21   ar
     6    21    15    1
     7    15    16    2
     8    15    17    2
     9    15    13    1
    10    13    12    1
    11    12    11    1
    12    11    10    1
    13    10     1    1
    14     1     2    1
    15     2     3    1
    16     3     4    1
    17     4     5    1
    18     5    26    1
    19    26    27    1
    20    27    28    1
    21    28    29    1
    22    29    30   ar
    23    30    31    1
    24    30    32   ar
    25    32    33   ar
    26    33    34   ar
    27    34    35   ar
    28    35    36    1
    29     5     6    1
    30     6     7    1
    31     7     8    1
    32     7     9    1
    33    21    22   ar
    34    22    23   ar
    35    23    18   ar
    36     8     1    1
    37     9     3    1
    38    35    29   ar
    39    13    14    1
@<TRIPOS>MOLECULE
*****
 36 39 0 0 0
SMALL
GASTEIGER

@<TRIPOS>ATOM
      1 N         139.2507  144.3091  162.7468 N.3     1  UNL1       -0.2685
      2 C         138.4112  143.2284  162.1326 C.3     1  UNL1        0.1035
      3 C         138.0840  141.9943  162.9200 C.3     1  UNL1        0.1470
      4 C         137.7568  140.7601  163.7073 C.3     1  UNL1        0.1036
      5 N         138.2691  140.6068  165.1087 N.3     1  UNL1       -0.2653
      6 C         139.1086  141.6876  165.7229 C.3     1  UNL1        0.1036
      7 C         139.4358  142.9217  164.9355 C.3     1  UNL1        0.1470
      8 C         139.7630  144.1558  164.1482 C.3     1  UNL1        0.1035
      9 O         138.5963  141.8410  164.3214 O.3     1  UNL1       -0.3530
     10 C         139.5779  145.5433  161.9594 C.3     1  UNL1        0.0737
     11 C         140.7495  145.5468  161.0228 C.3     1  UNL1        0.0362
     12 C         141.9534  144.7042  161.3245 C.3     1  UNL1        0.0929
     13 N         141.9445  143.2399  160.9997 N.3     1  UNL1       -0.1793
     14 H         140.9829  142.9970  160.7613 H       1  UNL1        0.1488
     15 S         142.4024  142.2422  162.0218 S.O2    1  UNL1        0.0602
     16 O         143.5144  143.1649  162.4243 O.2     1  UNL1       -0.1530
     17 O         141.2905  141.3194  161.6193 O.2     1  UNL1       -0.1530
     18 C         143.7762  139.2489  165.0882 C.ar    1  UNL1        0.0685
     19 C         144.6207  139.5263  163.8800 C.ar    1  UNL1        0.0116
     20 C         144.1628  140.5241  162.8579 C.ar    1  UNL1        0.0206
     21 C         142.8604  141.2444  163.0439 C.ar    1  UNL1        0.1220
     22 C         142.0158  140.9670  164.2521 C.ar    1  UNL1        0.0206
     23 C         142.4737  139.9692  165.2743 C.ar    1  UNL1        0.0116
     24 N         144.6921  137.2534  167.1325 N.1     1  UNL1       -0.1908
     25 C         144.2341  138.2511  166.1104 C.1     1  UNL1        0.1004
     26 C         137.9420  139.3727  165.8961 C.3     1  UNL1        0.1202
     27 C         138.7371  138.1178  165.6884 C.3     1  UNL1        0.2229
     28 O         138.5778  137.3299  164.4220 O.3     1  UNL1       -0.4694
     29 C         139.5174  137.5560  163.2749 C.ar    1  UNL1        0.1930
     30 C         140.9880  137.3192  163.4521 C.ar    1  UNL1        0.1761
     31 F         141.5189  136.8563  164.7764 F       1  UNL1       -0.2009
     32 C         141.9277  137.5452  162.3049 C.ar    1  UNL1        0.0329
     33 C         141.3968  138.0081  160.9806 C.ar    1  UNL1        0.0048
     34 C         139.9262  138.2449  160.8033 C.ar    1  UNL1        0.0329
     35 C         138.9866  138.0188  161.9504 C.ar    1  UNL1        0.1761
     36 F         137.5160  138.2556  161.7732 F       1  UNL1       -0.2009
@<TRIPOS>BOND
     1    24    25    3
     2    25    18    1
     3    18    19   ar
     4    19    20   ar
     5    20    21   ar
     6    21    15    1
     7    15    16    2
     8    15    17    2
     9    15    13    1
    10    13    12    1
    11    12    11    1
    12    11    10    1
    13    10     1    1
    14     1     2    1
    15     2     3    1
    16     3     4    1
    17     4     5    1
    18     5    26    1
    19    26    27    1
    20    27    28    1
    21    28    29    1
    22    29    30   ar
    23    30    31    1
    24    30    32   ar
    25    32    33   ar
    26    33    34   ar
    27    34    35   ar
    28    35    36    1
    29     5     6    1
    30     6     7    1
    31     7     8    1
    32     7     9    1
    33    21    22   ar
    34    22    23   ar
    35    23    18   ar
    36     8     1    1
    37     9     3    1
    38    35    29   ar
    39    13    14    1
@<TRIPOS>MOLECULE
*****
 36 39 0 0 0
SMALL
GASTEIGER

@<TRIPOS>ATOM
      1 N         140.1902  142.0317  158.9776 N.3     1  UNL1       -0.2685
      2 C         141.5901  141.5062  159.0963 C.3     1  UNL1        0.1035
      3 C         142.5601  142.1617  160.0340 C.3     1  UNL1        0.1470
      4 C         143.5303  142.8172  160.9717 C.3     1  UNL1        0.1036
      5 N         143.1005  143.9983  161.7905 N.3     1  UNL1       -0.2653
      6 C         141.7006  144.5238  161.6717 C.3     1  UNL1        0.1036
      7 C         140.7305  143.8682  160.7340 C.3     1  UNL1        0.1470
      8 C         139.7604  143.2127  159.7964 C.3     1  UNL1        0.1035
      9 O         142.1304  143.3427  160.8528 O.3     1  UNL1       -0.3530
     10 C         139.2200  141.3762  158.0399 C.3     1  UNL1        0.0737
     11 C         138.2587  140.3463  158.5547 C.3     1  UNL1        0.0362
     12 C         138.3126  139.9224  159.9926 C.3     1  UNL1        0.0929
     13 N         137.7039  140.7905  161.0537 N.3     1  UNL1       -0.1793
     14 H         137.9112  141.7562  160.7989 H       1  UNL1        0.1488
     15 S         138.1147  140.6230  162.4865 S.O2    1  UNL1        0.0602
     16 O         139.1431  139.6122  162.0735 O.2     1  UNL1       -0.1530
     17 O         137.0864  141.6338  162.8996 O.2     1  UNL1       -0.1530
     18 C         139.3471  140.1206  166.7852 C.ar    1  UNL1        0.0685
     19 C         139.4358  141.4680  166.1322 C.ar    1  UNL1        0.0116
     20 C         139.0250  141.6355  164.6993 C.ar    1  UNL1        0.0206
     21 C         138.5256  140.4556  163.9195 C.ar    1  UNL1        0.1220
     22 C         138.4369  139.1081  164.5725 C.ar    1  UNL1        0.0206
     23 C         138.8477  138.9406  166.0054 C.ar    1  UNL1        0.0116
     24 N         140.1687  139.7857  169.6510 N.1     1  UNL1       -0.1908
     25 C         139.7580  139.9531  168.2182 C.1     1  UNL1        0.1004
     26 C         144.0706  144.6538  162.7281 C.3     1  UNL1        0.1202
     27 C         143.8203  144.6252  164.2069 C.3     1  UNL1        0.2229
     28 O         144.5897  143.6786  165.0797 O.3     1  UNL1       -0.4694
     29 C         144.3077  142.2065  165.0205 C.ar    1  UNL1        0.1930
     30 C         145.1186  141.3231  164.1194 C.ar    1  UNL1        0.1761
     31 F         146.2116  141.9117  163.2775 F       1  UNL1       -0.2009
     32 C         144.8365  139.8510  164.0603 C.ar    1  UNL1        0.0329
     33 C         143.7435  139.2624  164.9022 C.ar    1  UNL1        0.0048
     34 C         142.9326  140.1458  165.8033 C.ar    1  UNL1        0.0329
     35 C         143.2146  141.6179  165.8625 C.ar    1  UNL1        0.1761
     36 F         142.4037  142.5013  166.7635 F       1  UNL1       -0.2009
@<TRIPOS>BOND
     1    24    25    3
     2    25    18    1
     3    18    19   ar
     4    19    20   ar
     5    20    21   ar
     6    21    15    1
     7    15    16    2
     8    15    17    2
     9    15    13    1
    10    13    12    1
    11    12    11    1
    12    11    10    1
    13    10     1    1
    14     1     2    1
    15     2     3    1
    16     3     4    1
    17     4     5    1
    18     5    26    1
    19    26    27    1
    20    27    28    1
    21    28    29    1
    22    29    30   ar
    23    30    31    1
    24    30    32   ar
    25    32    33   ar
    26    33    34   ar
    27    34    35   ar
    28    35    36    1
    29     5     6    1
    30     6     7    1
    31     7     8    1
    32     7     9    1
    33    21    22   ar
    34    22    23   ar
    35    23    18   ar
    36     8     1    1
    37     9     3    1
    38    35    29   ar
    39    13    14    1
@<TRIPOS>MOLECULE
*****
 36 39 0 0 0
SMALL
GASTEIGER

@<TRIPOS>ATOM
      1 N         140.3432  139.5093  159.5232 N.3     1  UNL1       -0.2685
      2 C         140.8917  140.9053  159.5190 C.3     1  UNL1        0.1035
      3 C         140.2275  141.9745  160.3348 C.3     1  UNL1        0.1470
      4 C         139.5632  143.0438  161.1507 C.3     1  UNL1        0.1036
      5 N         138.3505  142.7169  161.9707 N.3     1  UNL1       -0.2653
      6 C         137.8020  141.3207  161.9749 C.3     1  UNL1        0.1036
      7 C         138.4663  140.2515  161.1591 C.3     1  UNL1        0.1470
      8 C         139.1305  139.1823  160.3433 C.3     1  UNL1        0.1035
      9 O         139.0147  141.6476  161.1549 O.3     1  UNL1       -0.3530
     10 C         141.0075  138.4400  158.7074 C.3     1  UNL1        0.0737
     11 C         142.4449  138.0910  158.9562 C.3     1  UNL1        0.0362
     12 C         142.9014  137.7338  160.3397 C.3     1  UNL1        0.0929
     13 N         141.9062  137.2691  161.3613 N.3     1  UNL1       -0.1793
     14 H         140.9802  137.4434  160.9707 H       1  UNL1        0.1488
     15 S         141.9135  137.8618  162.7392 S.O2    1  UNL1        0.0602
     16 O         142.9164  138.8845  162.2940 O.2     1  UNL1       -0.1530
     17 O         140.9107  136.8391  163.1844 O.2     1  UNL1       -0.1530
     18 C         141.9354  139.6396  166.8730 C.ar    1  UNL1        0.0685
     19 C         143.2307  139.3345  166.1810 C.ar    1  UNL1        0.0116
     20 C         143.2235  138.7419  164.8031 C.ar    1  UNL1        0.0206
     21 C         141.9209  138.4544  164.1172 C.ar    1  UNL1        0.1220
     22 C         140.6255  138.7596  164.8092 C.ar    1  UNL1        0.0206
     23 C         140.6327  139.3522  166.1871 C.ar    1  UNL1        0.0116
     24 N         141.9500  140.8249  169.6289 N.1     1  UNL1       -0.1908
     25 C         141.9427  140.2322  168.2510 C.1     1  UNL1        0.1004
     26 C         137.6862  143.7860  162.7865 C.3     1  UNL1        0.1202
     27 C         137.9592  143.8849  164.2582 C.3     1  UNL1        0.2229
     28 O         139.0575  144.7752  164.7591 O.3     1  UNL1       -0.4694
     29 C         140.4907  144.3670  164.5880 C.ar    1  UNL1        0.1930
     30 C         141.3481  145.0504  163.5644 C.ar    1  UNL1        0.1761
     31 F         140.7724  146.1421  162.7120 F       1  UNL1       -0.2009
     32 C         142.7814  144.6421  163.3933 C.ar    1  UNL1        0.0329
     33 C         143.3571  143.5505  164.2458 C.ar    1  UNL1        0.0048
     34 C         142.4997  142.8670  165.2694 C.ar    1  UNL1        0.0329
     35 C         141.0665  143.2753  165.4405 C.ar    1  UNL1        0.1761
     36 F         140.2091  142.5918  166.4641 F       1  UNL1       -0.2009
@<TRIPOS>BOND
     1    24    25    3
     2    25    18    1
     3    18    19   ar
     4    19    20   ar
     5    20    21   ar
     6    21    15    1
     7    15    16    2
     8    15    17    2
     9    15    13    1
    10    13    12    1
    11    12    11    1
    12    11    10    1
    13    10     1    1
    14     1     2    1
    15     2     3    1
    16     3     4    1
    17     4     5    1
    18     5    26    1
    19    26    27    1
    20    27    28    1
    21    28    29    1
    22    29    30   ar
    23    30    31    1
    24    30    32   ar
    25    32    33   ar
    26    33    34   ar
    27    34    35   ar
    28    35    36    1
    29     5     6    1
    30     6     7    1
    31     7     8    1
    32     7     9    1
    33    21    22   ar
    34    22    23   ar
    35    23    18   ar
    36     8     1    1
    37     9     3    1
    38    35    29   ar
    39    13    14    1
@<TRIPOS>MOLECULE
*****
 36 39 0 0 0
SMALL
GASTEIGER

@<TRIPOS>ATOM
      1 N         140.6527  140.1646  160.5123 N.3     1  UNL1       -0.2685
      2 C         140.0422  138.7999  160.6343 C.3     1  UNL1        0.1035
      3 C         139.4475  138.3582  161.9385 C.3     1  UNL1        0.1470
      4 C         138.8527  137.9165  163.2428 C.3     1  UNL1        0.1036
      5 N         138.8684  138.8395  164.4251 N.3     1  UNL1       -0.2653
      6 C         139.4789  140.2042  164.3031 C.3     1  UNL1        0.1036
      7 C         140.0737  140.6459  162.9989 C.3     1  UNL1        0.1470
      8 C         140.6684  141.0876  161.6946 C.3     1  UNL1        0.1035
      9 O         139.4632  139.2812  163.1208 O.3     1  UNL1       -0.3530
     10 C         141.2475  140.6063  159.2080 C.3     1  UNL1        0.0737
     11 C         141.8483  139.5953  158.2770 C.3     1  UNL1        0.0362
     12 C         142.9392  138.6859  158.7601 C.3     1  UNL1        0.0929
     13 N         144.0168  139.2182  159.6576 N.3     1  UNL1       -0.1793
     14 H         144.8676  138.7018  159.4342 H       1  UNL1        0.1488
     15 S         143.8509  139.1561  161.1470 S.O2    1  UNL1        0.0602
     16 O         144.3078  140.5805  161.2573 O.2     1  UNL1       -0.1530
     17 O         143.3940  137.7317  161.0368 O.2     1  UNL1       -0.1530
     18 C         143.3532  138.9696  165.6155 C.ar    1  UNL1        0.0685
     19 C         144.3496  139.9137  165.0106 C.ar    1  UNL1        0.0116
     20 C         144.5155  139.9759  163.5211 C.ar    1  UNL1        0.0206
     21 C         143.6850  139.0939  162.6366 C.ar    1  UNL1        0.1220
     22 C         142.6887  138.1498  163.2415 C.ar    1  UNL1        0.0206
     23 C         142.5228  138.0877  164.7310 C.ar    1  UNL1        0.0116
     24 N         143.0214  138.8453  168.5945 N.1     1  UNL1       -0.1908
     25 C         143.1873  138.9074  167.1051 C.1     1  UNL1        0.1004
     26 C         138.2736  138.3978  165.7294 C.3     1  UNL1        0.1202
     27 C         138.3391  139.2987  166.9270 C.3     1  UNL1        0.2229
     28 O         139.6319  139.4678  167.6685 O.3     1  UNL1       -0.4694
     29 C         139.9100  140.7414  168.4104 C.ar    1  UNL1        0.1930
     30 C         139.3096  140.9658  169.7666 C.ar    1  UNL1        0.1761
     31 F         138.4312  139.9165  170.3809 F       1  UNL1       -0.2009
     32 C         139.5877  142.2395  170.5085 C.ar    1  UNL1        0.0329
     33 C         140.4661  143.2888  169.8942 C.ar    1  UNL1        0.0048
     34 C         141.0665  143.0644  168.5380 C.ar    1  UNL1        0.0329
     35 C         140.7884  141.7908  167.7961 C.ar    1  UNL1        0.1761
     36 F         141.3888  141.5664  166.4400 F       1  UNL1       -0.2009
@<TRIPOS>BOND
     1    24    25    3
     2    25    18    1
     3    18    19   ar
     4    19    20   ar
     5    20    21   ar
     6    21    15    1
     7    15    16    2
     8    15    17    2
     9    15    13    1
    10    13    12    1
    11    12    11    1
    12    11    10    1
    13    10     1    1
    14     1     2    1
    15     2     3    1
    16     3     4    1
    17     4     5    1
    18     5    26    1
    19    26    27    1
    20    27    28    1
    21    28    29    1
    22    29    30   ar
    23    30    31    1
    24    30    32   ar
    25    32    33   ar
    26    33    34   ar
    27    34    35   ar
    28    35    36    1
    29     5     6    1
    30     6     7    1
    31     7     8    1
    32     7     9    1
    33    21    22   ar
    34    22    23   ar
    35    23    18   ar
    36     8     1    1
    37     9     3    1
    38    35    29   ar
    39    13    14    1
@<TRIPOS>MOLECULE
*****
 36 39 0 0 0
SMALL
GASTEIGER

@<TRIPOS>ATOM
      1 N         143.3914  142.6300  160.8625 N.3     1  UNL1       -0.2685
      2 C         142.0002  143.1509  160.6551 C.3     1  UNL1        0.1035
      3 C         141.1160  143.4192  161.8367 C.3     1  UNL1        0.1470
      4 C         140.2317  143.6876  163.0183 C.3     1  UNL1        0.1036
      5 N         140.7388  143.4351  164.4072 N.3     1  UNL1       -0.2653
      6 C         142.1302  142.9142  164.6146 C.3     1  UNL1        0.1036
      7 C         143.0144  142.6458  163.4330 C.3     1  UNL1        0.1470
      8 C         143.8985  142.3775  162.2514 C.3     1  UNL1        0.1035
      9 O         141.6231  143.1667  163.2256 O.3     1  UNL1       -0.3530
     10 C         144.2757  142.3616  159.6809 C.3     1  UNL1        0.0737
     11 C         144.0798  141.1186  158.8644 C.3     1  UNL1        0.0362
     12 C         143.1495  140.0445  159.3451 C.3     1  UNL1        0.0929
     13 N         143.4922  139.2480  160.5690 N.3     1  UNL1       -0.1793
     14 H         143.7523  138.3148  160.2497 H       1  UNL1        0.1488
     15 S         142.4736  139.0659  161.6548 S.O2    1  UNL1        0.0602
     16 O         141.4529  139.7768  160.8165 O.2     1  UNL1       -0.1530
     17 O         143.4942  138.3550  162.4931 O.2     1  UNL1       -0.1530
     18 C         139.4176  138.5195  164.9125 C.ar    1  UNL1        0.0685
     19 C         139.3603  139.7277  164.0254 C.ar    1  UNL1        0.0116
     20 C         140.3790  139.9099  162.9395 C.ar    1  UNL1        0.0206
     21 C         141.4548  138.8838  162.7407 C.ar    1  UNL1        0.1220
     22 C         141.5121  137.6756  163.6278 C.ar    1  UNL1        0.0206
     23 C         140.4935  137.4934  164.7137 C.ar    1  UNL1        0.0116
     24 N         137.3802  138.1553  167.0842 N.1     1  UNL1       -0.1908
     25 C         138.3989  138.3374  165.9984 C.1     1  UNL1        0.1004
     26 C         139.8547  143.7034  165.5888 C.3     1  UNL1        0.1202
     27 C         140.1059  142.9988  166.8890 C.3     1  UNL1        0.2229
     28 O         139.8584  141.5237  167.0027 O.3     1  UNL1       -0.4694
     29 C         140.6828  140.6952  167.9428 C.ar    1  UNL1        0.1930
     30 C         141.8757  139.9435  167.4309 C.ar    1  UNL1        0.1761
     31 F         142.2441  140.0202  165.9789 F       1  UNL1       -0.2009
     32 C         142.7001  139.1149  168.3711 C.ar    1  UNL1        0.0329
     33 C         142.3317  139.0382  169.8231 C.ar    1  UNL1        0.0048
     34 C         141.1389  139.7899  170.3350 C.ar    1  UNL1        0.0329
     35 C         140.3145  140.6184  169.3949 C.ar    1  UNL1        0.1761
     36 F         139.1216  141.3702  169.9068 F       1  UNL1       -0.2009
@<TRIPOS>BOND
     1    24    25    3
     2    25    18    1
     3    18    19   ar
     4    19    20   ar
     5    20    21   ar
     6    21    15    1
     7    15    16    2
     8    15    17    2
     9    15    13    1
    10    13    12    1
    11    12    11    1
    12    11    10    1
    13    10     1    1
    14     1     2    1
    15     2     3    1
    16     3     4    1
    17     4     5    1
    18     5    26    1
    19    26    27    1
    20    27    28    1
    21    28    29    1
    22    29    30   ar
    23    30    31    1
    24    30    32   ar
    25    32    33   ar
    26    33    34   ar
    27    34    35   ar
    28    35    36    1
    29     5     6    1
    30     6     7    1
    31     7     8    1
    32     7     9    1
    33    21    22   ar
    34    22    23   ar
    35    23    18   ar
    36     8     1    1
    37     9     3    1
    38    35    29   ar
    39    13    14    1
@<TRIPOS>MOLECULE
*****
 36 39 0 0 0
SMALL
GASTEIGER

@<TRIPOS>ATOM
      1 N         141.7232  144.2860  159.2316 N.3     1  UNL1       -0.2685
      2 C         142.8341  143.3635  158.8258 C.3     1  UNL1        0.1035
      3 C         143.7618  142.8047  159.8637 C.3     1  UNL1        0.1470
      4 C         144.6895  142.2458  160.9015 C.3     1  UNL1        0.1036
      5 N         144.5062  142.6095  162.3452 N.3     1  UNL1       -0.2653
      6 C         143.3951  143.5320  162.7510 C.3     1  UNL1        0.1036
      7 C         142.4675  144.0908  161.7131 C.3     1  UNL1        0.1470
      8 C         141.5398  144.6496  160.6753 C.3     1  UNL1        0.1035
      9 O         143.5784  143.1683  161.3073 O.3     1  UNL1       -0.3530
     10 C         140.7955  144.8449  158.1938 C.3     1  UNL1        0.0737
     11 C         139.6525  144.0170  157.6856 C.3     1  UNL1        0.0362
     12 C         139.2543  142.7643  158.4083 C.3     1  UNL1        0.0929
     13 N         138.2094  142.8184  159.4831 N.3     1  UNL1       -0.1793
     14 H         137.9232  143.7938  159.5667 H       1  UNL1        0.1488
     15 S         138.5328  142.3418  160.8681 S.O2    1  UNL1        0.0602
     16 O         139.2087  141.1321  160.2940 O.2     1  UNL1       -0.1530
     17 O         137.8569  143.5516  161.4422 O.2     1  UNL1       -0.1530
     18 C         139.5030  140.9124  165.0233 C.ar    1  UNL1        0.0685
     19 C         140.5904  141.0265  163.9964 C.ar    1  UNL1        0.0116
     20 C         140.2670  141.5029  162.6114 C.ar    1  UNL1        0.0206
     21 C         138.8563  141.8653  162.2532 C.ar    1  UNL1        0.1220
     22 C         137.7688  141.7512  163.2801 C.ar    1  UNL1        0.0206
     23 C         138.0922  141.2748  164.6651 C.ar    1  UNL1        0.0116
     24 N         140.1499  139.9594  167.7934 N.1     1  UNL1       -0.1908
     25 C         139.8264  140.4359  166.4084 C.1     1  UNL1        0.1004
     26 C         145.4338  142.0506  163.3830 C.3     1  UNL1        0.1202
     27 C         144.9394  141.0192  164.3535 C.3     1  UNL1        0.2229
     28 O         144.9470  139.5680  163.9742 O.3     1  UNL1       -0.4694
     29 C         143.6521  138.8291  163.8095 C.ar    1  UNL1        0.1930
     30 C         143.1118  138.5595  162.4364 C.ar    1  UNL1        0.1761
     31 F         143.8665  139.0287  161.2280 F       1  UNL1       -0.2009
     32 C         141.8168  137.8205  162.2717 C.ar    1  UNL1        0.0329
     33 C         141.0622  137.3513  163.4801 C.ar    1  UNL1        0.0048
     34 C         141.6024  137.6209  164.8532 C.ar    1  UNL1        0.0329
     35 C         142.8973  138.3598  165.0179 C.ar    1  UNL1        0.1761
     36 F         143.4376  138.6294  166.3910 F       1  UNL1       -0.2009
@<TRIPOS>BOND
     1    24    25    3
     2    25    18    1
     3    18    19   ar
     4    19    20   ar
     5    20    21   ar
     6    21    15    1
     7    15    16    2
     8    15    17    2
     9    15    13    1
    10    13    12    1
    11    12    11    1
    12    11    10    1
    13    10     1    1
    14     1     2    1
    15     2     3    1
    16     3     4    1
    17     4     5    1
    18     5    26    1
    19    26    27    1
    20    27    28    1
    21    28    29    1
    22    29    30   ar
    23    30    31    1
    24    30    32   ar
    25    32    33   ar
    26    33    34   ar
    27    34    35   ar
    28    35    36    1
    29     5     6    1
    30     6     7    1
    31     7     8    1
    32     7     9    1
    33    21    22   ar
    34    22    23   ar
    35    23    18   ar
    36     8     1    1
    37     9     3    1
    38    35    29   ar
    39    13    14    1
