@<TRIPOS>MOLECULE
*****
 40 46 0 0 0
SMALL
GASTEIGER

@<TRIPOS>ATOM
      1 C         140.7550  141.1737  159.8563 C.3     1  UNL1        0.1558
      2 N         141.0880  140.1006  158.8625 N.3     1  UNL1       -0.2809
      3 C         142.4023  139.3826  158.9463 C.3     1  UNL1        0.1166
      4 C         143.3836  139.7377  160.0238 C.3     1  UNL1        0.0511
      5 C         143.0506  140.8108  161.0175 C.2     1  UNL1       -0.0037
      6 C         141.7363  141.5288  160.9338 C.2     1  UNL1        0.0784
      7 N         141.6862  142.5349  162.0452 N.2     1  UNL1       -0.2519
      8 C         142.9695  142.4387  162.8158 C.2     1  UNL1        0.0627
      9 C         143.4791  143.1837  164.0138 C.3     1  UNL1        0.0717
     10 C         144.8320  142.8631  164.5767 C.2     1  UNL1       -0.0198
     11 C         145.6753  141.7975  163.9415 C.2     1  UNL1       -0.0042
     12 C         145.1657  141.0525  162.7435 C.2     1  UNL1        0.0006
     13 C         143.8128  141.3731  162.1807 C.2     1  UNL1        0.0111
     14 H         141.0461  140.5314  157.9389 H       1  UNL1        0.1245
     15 C         139.5076  141.1938  159.0235 C.ar    1  UNL1        0.0423
     16 C         138.3730  140.2166  159.1115 C.ar    1  UNL1        0.1194
     17 N         137.3399  140.6135  158.0988 N.ar    1  UNL1       -0.1679
     18 N         137.8361  141.8359  157.3850 N.ar    1  UNL1       -0.2476
     19 C         137.1186  142.5706  156.2918 C.3     1  UNL1        0.1537
     20 C         139.1758  142.1945  157.9565 C.ar    1  UNL1        0.0944
     21 C         142.7354  138.3095  157.9525 C.ar    1  UNL1        0.1319
     22 N         142.2761  136.8827  158.0086 N.ar    1  UNL1       -0.2282
     23 C         142.8430  136.1661  156.8190 C.ar    1  UNL1        0.1171
     24 C         143.6527  137.1501  156.0277 C.ar    1  UNL1        0.0942
     25 N         143.5862  138.4748  156.7282 N.ar    1  UNL1       -0.3385
     26 H         144.0240  139.3067  156.4359 H       1  UNL1        0.1672
     27 C         142.6365  134.7195  156.4802 C.ar    1  UNL1        0.1006
     28 C         141.7206  134.3359  155.3560 C.ar    1  UNL1        0.0230
     29 C         141.5140  132.8893  155.0172 C.ar    1  UNL1        0.0328
     30 C         142.2234  131.8264  155.8026 C.ar    1  UNL1        0.1592
     31 F         142.0169  130.3798  155.4638 F       1  UNL1       -0.2025
     32 C         143.1394  132.2100  156.9268 C.ar    1  UNL1        0.1284
     33 N         143.3459  133.6566  157.2656 N.ar    1  UNL1       -0.2399
     34 C         138.5082  143.4037  162.1022 C.ar    1  UNL1        0.2364
     35 N         139.0504  142.0599  161.7148 N.ar    1  UNL1       -0.1928
     36 C         139.9888  142.2538  160.5609 C.ar    1  UNL1        0.2023
     37 N         140.0266  143.7175  160.2350 N.ar    1  UNL1       -0.0586
     38 O         139.1115  144.4282  161.1877 O.2     1  UNL1       -0.3373
     39 C         138.0341  144.0132  164.5829 C.3     1  UNL1        0.0103
     40 C         137.5337  143.6753  163.2097 C.3     1  UNL1        0.0880
@<TRIPOS>BOND
     1    39    40    1
     2    40    34    1
     3    34    35   ar
     4    35    36   ar
     5     1    36    1
     6     1    15    1
     7    15    16   ar
     8    16    17   ar
     9    17    18   ar
    10    18    19    1
    11    18    20   ar
    12     1     2    1
    13     2     3    1
    14     3    21    1
    15    21    22   ar
    16    22    23   ar
    17    23    27    1
    18    27    28   ar
    19    28    29   ar
    20    29    30   ar
    21    30    31    1
    22    30    32   ar
    23    32    33   ar
    24    23    24   ar
    25    24    25   ar
    26     3     4    1
    27     4     5    1
    28     5     6    2
    29     6     7    1
    30     7     8    2
    31     8     9    1
    32     9    10    1
    33    10    11    2
    34    11    12    1
    35    12    13    2
    36    36    37   ar
    37    37    38   ar
    38    38    34   ar
    39     6     1    1
    40    13     8    1
    41    20    15   ar
    42    25    21   ar
    43    13     5    1
    44    33    27   ar
    45     2    14    1
    46    25    26    1
@<TRIPOS>MOLECULE
*****
 40 46 0 0 0
SMALL
GASTEIGER

@<TRIPOS>ATOM
      1 C         140.0274  141.6061  160.7777 C.3     1  UNL1        0.1558
      2 N         140.7093  140.9264  159.6275 N.3     1  UNL1       -0.2809
      3 C         140.9810  139.4522  159.6818 C.3     1  UNL1        0.1166
      4 C         140.5709  138.6578  160.8863 C.3     1  UNL1        0.0511
      5 C         139.8890  139.3375  162.0364 C.2     1  UNL1       -0.0037
      6 C         139.6173  140.8117  161.9821 C.2     1  UNL1        0.0784
      7 N         138.9336  141.2043  163.2583 N.2     1  UNL1       -0.2519
      8 C         138.7829  139.9727  164.1013 C.2     1  UNL1        0.0627
      9 C         138.1842  139.7529  165.4589 C.3     1  UNL1        0.0717
     10 C         138.1760  138.3792  166.0614 C.2     1  UNL1       -0.0198
     11 C         138.7665  137.2255  165.3062 C.2     1  UNL1       -0.0042
     12 C         139.3651  137.4454  163.9486 C.2     1  UNL1        0.0006
     13 C         139.3733  138.8190  163.3461 C.2     1  UNL1        0.0111
     14 H         141.6108  141.3876  159.5054 H       1  UNL1        0.1245
     15 C         140.2245  142.7779  159.8623 C.ar    1  UNL1        0.0423
     16 C         141.1738  143.9185  160.0820 C.ar    1  UNL1        0.1194
     17 N         141.0429  144.8604  158.9219 N.ar    1  UNL1       -0.1679
     18 N         140.0128  144.3021  157.9854 N.ar    1  UNL1       -0.2476
     19 C         139.5668  144.9219  156.6943 C.3     1  UNL1        0.1537
     20 C         139.5070  143.0150  158.5665 C.ar    1  UNL1        0.0944
     21 C         141.6630  138.7723  158.5316 C.ar    1  UNL1        0.1319
     22 N         141.6943  137.2951  158.2736 N.ar    1  UNL1       -0.2282
     23 C         142.4840  137.0601  157.0201 C.ar    1  UNL1        0.1171
     24 C         142.9406  138.3922  156.5034 C.ar    1  UNL1        0.0942
     25 N         142.4332  139.4504  157.4376 N.ar    1  UNL1       -0.3385
     26 H         142.5799  140.4198  157.3484 H       1  UNL1        0.1672
     27 C         142.7672  135.7271  156.3933 C.ar    1  UNL1        0.1006
     28 C         142.4558  135.4985  154.9439 C.ar    1  UNL1        0.0230
     29 C         142.7390  134.1655  154.3171 C.ar    1  UNL1        0.0328
     30 C         143.3336  133.0611  155.1397 C.ar    1  UNL1        0.1592
     31 F         143.6169  131.7281  154.5129 F       1  UNL1       -0.2025
     32 C         143.6450  133.2897  156.5891 C.ar    1  UNL1        0.1284
     33 N         143.3618  134.6227  157.2159 N.ar    1  UNL1       -0.2399
     34 C         139.0784  144.3731  163.3289 C.ar    1  UNL1        0.2364
     35 N         140.0381  143.3445  162.8082 N.ar    1  UNL1       -0.1928
     36 C         139.4140  142.6929  161.6100 C.ar    1  UNL1        0.2023
     37 N         138.0686  143.3186  161.3902 N.ar    1  UNL1       -0.0586
     38 O         137.8612  144.3571  162.4525 O.2     1  UNL1       -0.3373
     39 C         138.5101  145.0403  165.7747 C.3     1  UNL1        0.0103
     40 C         139.2976  145.2616  164.5173 C.3     1  UNL1        0.0880
@<TRIPOS>BOND
     1    39    40    1
     2    40    34    1
     3    34    35   ar
     4    35    36   ar
     5     1    36    1
     6     1    15    1
     7    15    16   ar
     8    16    17   ar
     9    17    18   ar
    10    18    19    1
    11    18    20   ar
    12     1     2    1
    13     2     3    1
    14     3    21    1
    15    21    22   ar
    16    22    23   ar
    17    23    27    1
    18    27    28   ar
    19    28    29   ar
    20    29    30   ar
    21    30    31    1
    22    30    32   ar
    23    32    33   ar
    24    23    24   ar
    25    24    25   ar
    26     3     4    1
    27     4     5    1
    28     5     6    2
    29     6     7    1
    30     7     8    2
    31     8     9    1
    32     9    10    1
    33    10    11    2
    34    11    12    1
    35    12    13    2
    36    36    37   ar
    37    37    38   ar
    38    38    34   ar
    39     6     1    1
    40    13     8    1
    41    20    15   ar
    42    25    21   ar
    43    13     5    1
    44    33    27   ar
    45     2    14    1
    46    25    26    1
@<TRIPOS>MOLECULE
*****
 40 46 0 0 0
SMALL
GASTEIGER

@<TRIPOS>ATOM
      1 C         139.7367  141.6087  160.0444 C.3     1  UNL1        0.1558
      2 N         139.8378  140.7846  158.7952 N.3     1  UNL1       -0.2809
      3 C         139.7025  139.2925  158.8680 C.3     1  UNL1        0.1166
      4 C         139.4660  138.6245  160.1901 C.3     1  UNL1        0.0511
      5 C         139.3649  139.4486  161.4393 C.2     1  UNL1       -0.0037
      6 C         139.5002  140.9407  161.3665 C.2     1  UNL1        0.0784
      7 N         139.3567  141.4875  162.7559 N.2     1  UNL1       -0.2519
      8 C         139.1326  140.3333  163.6874 C.2     1  UNL1        0.0627
      9 C         138.9246  140.2670  165.1714 C.3     1  UNL1        0.0717
     10 C         138.7217  138.9406  165.8417 C.2     1  UNL1       -0.0198
     11 C         138.7268  137.6805  165.0281 C.2     1  UNL1       -0.0042
     12 C         138.9348  137.7468  163.5441 C.2     1  UNL1        0.0006
     13 C         139.1377  139.0732  162.8737 C.2     1  UNL1        0.0111
     14 H         140.7530  140.9777  158.3883 H       1  UNL1        0.1245
     15 C         139.9656  142.6937  159.0344 C.ar    1  UNL1        0.0423
     16 C         138.9725  143.1776  158.0197 C.ar    1  UNL1        0.1194
     17 N         139.6211  144.2684  157.2199 N.ar    1  UNL1       -0.1679
     18 N         141.0150  144.4587  157.7403 N.ar    1  UNL1       -0.2476
     19 C         142.0195  145.4483  157.2291 C.3     1  UNL1        0.1537
     20 C         141.2279  143.4855  158.8617 C.ar    1  UNL1        0.0944
     21 C         139.8036  138.4683  157.6187 C.ar    1  UNL1        0.1319
     22 N         140.7312  137.3101  157.3994 N.ar    1  UNL1       -0.2282
     23 C         140.4958  136.7836  156.0146 C.ar    1  UNL1        0.1171
     24 C         139.4228  137.6164  155.3783 C.ar    1  UNL1        0.0942
     25 N         138.9950  138.6576  156.3697 N.ar    1  UNL1       -0.3385
     26 H         138.3046  139.3447  156.2258 H       1  UNL1        0.1672
     27 C         141.2084  135.6273  155.3781 C.ar    1  UNL1        0.1006
     28 C         140.9417  135.2799  153.9434 C.ar    1  UNL1        0.0230
     29 C         141.6543  134.1236  153.3068 C.ar    1  UNL1        0.0328
     30 C         142.6334  133.3147  154.1049 C.ar    1  UNL1        0.1592
     31 F         143.3460  132.1584  153.4683 F       1  UNL1       -0.2025
     32 C         142.9001  133.6621  155.5395 C.ar    1  UNL1        0.1284
     33 N         142.1875  134.8184  156.1761 N.ar    1  UNL1       -0.2399
     34 C         140.4098  144.5587  162.4755 C.ar    1  UNL1        0.2364
     35 N         140.8804  143.3553  161.7136 N.ar    1  UNL1       -0.1928
     36 C         139.7151  142.8096  160.9429 C.ar    1  UNL1        0.2023
     37 N         138.5241  143.6757  161.2284 N.ar    1  UNL1       -0.0586
     38 O         138.9535  144.7567  162.1756 O.2     1  UNL1       -0.3373
     39 C         142.6926  145.0764  163.6028 C.3     1  UNL1        0.0103
     40 C         141.2483  145.4138  163.3786 C.3     1  UNL1        0.0880
@<TRIPOS>BOND
     1    39    40    1
     2    40    34    1
     3    34    35   ar
     4    35    36   ar
     5     1    36    1
     6     1    15    1
     7    15    16   ar
     8    16    17   ar
     9    17    18   ar
    10    18    19    1
    11    18    20   ar
    12     1     2    1
    13     2     3    1
    14     3    21    1
    15    21    22   ar
    16    22    23   ar
    17    23    27    1
    18    27    28   ar
    19    28    29   ar
    20    29    30   ar
    21    30    31    1
    22    30    32   ar
    23    32    33   ar
    24    23    24   ar
    25    24    25   ar
    26     3     4    1
    27     4     5    1
    28     5     6    2
    29     6     7    1
    30     7     8    2
    31     8     9    1
    32     9    10    1
    33    10    11    2
    34    11    12    1
    35    12    13    2
    36    36    37   ar
    37    37    38   ar
    38    38    34   ar
    39     6     1    1
    40    13     8    1
    41    20    15   ar
    42    25    21   ar
    43    13     5    1
    44    33    27   ar
    45     2    14    1
    46    25    26    1
@<TRIPOS>MOLECULE
*****
 40 46 0 0 0
SMALL
GASTEIGER

@<TRIPOS>ATOM
      1 C         141.6631  142.0397  161.4840 C.3     1  UNL1        0.1558
      2 N         141.8799  141.3014  160.1964 N.3     1  UNL1       -0.2809
      3 C         142.4191  139.9018  160.2161 C.3     1  UNL1        0.1166
      4 C         142.7414  139.2405  161.5233 C.3     1  UNL1        0.0511
      5 C         142.5246  139.9787  162.8109 C.2     1  UNL1       -0.0037
      6 C         141.9854  141.3783  162.7912 C.2     1  UNL1        0.0784
      7 N         141.8768  141.8531  164.2100 N.2     1  UNL1       -0.2519
      8 C         142.3487  140.7469  165.1064 C.2     1  UNL1        0.0627
      9 C         142.4657  140.6448  166.5983 C.3     1  UNL1        0.0717
     10 C         142.9830  139.3843  167.2255 C.2     1  UNL1       -0.0198
     11 C         143.3833  138.2259  166.3608 C.2     1  UNL1       -0.0042
     12 C         143.2664  138.3280  164.8689 C.2     1  UNL1        0.0006
     13 C         142.7491  139.5885  164.2417 C.2     1  UNL1        0.0111
     14 H         142.5298  141.8595  159.6428 H       1  UNL1        0.1245
     15 C         141.2110  143.0833  160.5061 C.ar    1  UNL1        0.0423
     16 C         139.7902  143.4807  160.2347 C.ar    1  UNL1        0.1194
     17 N         139.8014  144.5558  159.1887 N.ar    1  UNL1       -0.1679
     18 N         141.2290  144.8228  158.8135 N.ar    1  UNL1       -0.2476
     19 C         141.7023  145.8239  157.8019 C.3     1  UNL1        0.1537
     20 C         142.1002  143.9127  159.6277 C.ar    1  UNL1        0.0944
     21 C         142.6360  139.1634  158.9284 C.ar    1  UNL1        0.1319
     22 N         142.6563  137.6731  158.7594 N.ar    1  UNL1       -0.2282
     23 C         142.9034  137.3744  157.3104 C.ar    1  UNL1        0.1171
     24 C         143.0358  138.6800  156.5839 C.ar    1  UNL1        0.0942
     25 N         142.8705  139.7857  157.5840 N.ar    1  UNL1       -0.3385
     26 H         142.9092  140.7505  157.3916 H       1  UNL1        0.1672
     27 C         143.0011  136.0095  156.6957 C.ar    1  UNL1        0.1006
     28 C         142.8092  135.8370  155.2181 C.ar    1  UNL1        0.0230
     29 C         142.9068  134.4722  154.6034 C.ar    1  UNL1        0.0328
     30 C         143.1963  133.2800  155.4664 C.ar    1  UNL1        0.1592
     31 F         143.2939  131.9152  154.8517 F       1  UNL1       -0.2025
     32 C         143.3881  133.4525  156.9440 C.ar    1  UNL1        0.1284
     33 N         143.2905  134.8173  157.5587 N.ar    1  UNL1       -0.2399
     34 C         140.0484  144.5087  164.0064 C.ar    1  UNL1        0.2364
     35 N         139.9925  143.2606  163.1762 N.ar    1  UNL1       -0.1928
     36 C         141.2892  143.1404  162.4320 C.ar    1  UNL1        0.2023
     37 N         142.1467  144.3142  162.8022 N.ar    1  UNL1       -0.0586
     38 O         141.3798  145.1598  163.7752 O.2     1  UNL1       -0.3373
     39 C         137.6820  144.2489  165.0468 C.3     1  UNL1        0.0103
     40 C         138.9635  145.0164  164.9091 C.3     1  UNL1        0.0880
@<TRIPOS>BOND
     1    39    40    1
     2    40    34    1
     3    34    35   ar
     4    35    36   ar
     5     1    36    1
     6     1    15    1
     7    15    16   ar
     8    16    17   ar
     9    17    18   ar
    10    18    19    1
    11    18    20   ar
    12     1     2    1
    13     2     3    1
    14     3    21    1
    15    21    22   ar
    16    22    23   ar
    17    23    27    1
    18    27    28   ar
    19    28    29   ar
    20    29    30   ar
    21    30    31    1
    22    30    32   ar
    23    32    33   ar
    24    23    24   ar
    25    24    25   ar
    26     3     4    1
    27     4     5    1
    28     5     6    2
    29     6     7    1
    30     7     8    2
    31     8     9    1
    32     9    10    1
    33    10    11    2
    34    11    12    1
    35    12    13    2
    36    36    37   ar
    37    37    38   ar
    38    38    34   ar
    39     6     1    1
    40    13     8    1
    41    20    15   ar
    42    25    21   ar
    43    13     5    1
    44    33    27   ar
    45     2    14    1
    46    25    26    1
@<TRIPOS>MOLECULE
*****
 40 46 0 0 0
SMALL
GASTEIGER

@<TRIPOS>ATOM
      1 C         141.7633  142.0203  160.0943 C.3     1  UNL1        0.1558
      2 N         140.9821  141.5593  158.8997 N.3     1  UNL1       -0.2809
      3 C         139.4859  141.6666  158.8951 C.3     1  UNL1        0.1166
      4 C         138.7711  142.2351  160.0850 C.3     1  UNL1        0.0511
      5 C         139.5523  142.6962  161.2795 C.2     1  UNL1       -0.0037
      6 C         141.0485  142.5888  161.2842 C.2     1  UNL1        0.0784
      7 N         141.5472  143.1209  162.5949 N.2     1  UNL1       -0.2519
      8 C         140.3594  143.5572  163.4003 C.2     1  UNL1        0.0627
      9 C         140.2412  144.1595  164.7690 C.3     1  UNL1        0.0717
     10 C         138.8900  144.4994  165.3246 C.2     1  UNL1       -0.0198
     11 C         137.6570  144.2369  164.5116 C.2     1  UNL1       -0.0042
     12 C         137.7753  143.6345  163.1430 C.2     1  UNL1        0.0006
     13 C         139.1264  143.2947  162.5874 C.2     1  UNL1        0.0111
     14 H         141.2070  140.5738  158.7633 H       1  UNL1        0.1245
     15 C         142.8848  141.5560  159.2130 C.ar    1  UNL1        0.0423
     16 C         143.2616  140.1294  158.9434 C.ar    1  UNL1        0.1194
     17 N         144.4361  140.1286  158.0103 N.ar    1  UNL1       -0.1679
     18 N         144.7852  141.5546  157.7032 N.ar    1  UNL1       -0.2476
     19 C         145.8976  142.0173  156.8098 C.3     1  UNL1        0.1537
     20 C         143.8264  142.4369  158.4465 C.ar    1  UNL1        0.0944
     21 C         138.7046  141.2055  157.7005 C.ar    1  UNL1        0.1319
     22 N         137.3823  141.7503  157.2481 N.ar    1  UNL1       -0.2282
     23 C         136.9688  141.0002  156.0166 C.ar    1  UNL1        0.1171
     24 C         138.0357  139.9920  155.7080 C.ar    1  UNL1        0.0942
     25 N         139.1084  140.1189  156.7486 N.ar    1  UNL1       -0.3385
     26 H         139.9328  139.5830  156.7983 H       1  UNL1        0.1672
     27 C         135.7096  141.2199  155.2316 C.ar    1  UNL1        0.1006
     28 C         135.7859  141.6396  153.7936 C.ar    1  UNL1        0.0230
     29 C         134.5267  141.8593  153.0086 C.ar    1  UNL1        0.0328
     30 C         133.1913  141.6592  153.6617 C.ar    1  UNL1        0.1592
     31 F         131.9320  141.8788  152.8767 F       1  UNL1       -0.2025
     32 C         133.1150  141.2394  155.0997 C.ar    1  UNL1        0.1284
     33 N         134.3741  141.0198  155.8847 N.ar    1  UNL1       -0.2399
     34 C         144.7411  142.0691  162.5835 C.ar    1  UNL1        0.2364
     35 N         143.6310  141.3433  161.8827 N.ar    1  UNL1       -0.1928
     36 C         142.9341  142.3202  160.9829 C.ar    1  UNL1        0.2023
     37 N         143.6134  143.6497  161.1274 N.ar    1  UNL1       -0.0586
     38 O         144.7302  143.4945  162.1167 O.2     1  UNL1       -0.3373
     39 C         145.3563  140.1819  164.2599 C.3     1  UNL1        0.0103
     40 C         145.6946  141.4738  163.5767 C.3     1  UNL1        0.0880
@<TRIPOS>BOND
     1    39    40    1
     2    40    34    1
     3    34    35   ar
     4    35    36   ar
     5     1    36    1
     6     1    15    1
     7    15    16   ar
     8    16    17   ar
     9    17    18   ar
    10    18    19    1
    11    18    20   ar
    12     1     2    1
    13     2     3    1
    14     3    21    1
    15    21    22   ar
    16    22    23   ar
    17    23    27    1
    18    27    28   ar
    19    28    29   ar
    20    29    30   ar
    21    30    31    1
    22    30    32   ar
    23    32    33   ar
    24    23    24   ar
    25    24    25   ar
    26     3     4    1
    27     4     5    1
    28     5     6    2
    29     6     7    1
    30     7     8    2
    31     8     9    1
    32     9    10    1
    33    10    11    2
    34    11    12    1
    35    12    13    2
    36    36    37   ar
    37    37    38   ar
    38    38    34   ar
    39     6     1    1
    40    13     8    1
    41    20    15   ar
    42    25    21   ar
    43    13     5    1
    44    33    27   ar
    45     2    14    1
    46    25    26    1
@<TRIPOS>MOLECULE
*****
 40 46 0 0 0
SMALL
GASTEIGER

@<TRIPOS>ATOM
      1 C         142.4835  142.6657  160.0951 C.3     1  UNL1        0.1558
      2 N         141.9734  143.2880  158.8291 N.3     1  UNL1       -0.2809
      3 C         140.7997  144.2209  158.8720 C.3     1  UNL1        0.1166
      4 C         140.1359  144.5317  160.1808 C.3     1  UNL1        0.0511
      5 C         140.6459  143.9094  161.4467 C.2     1  UNL1       -0.0037
      6 C         141.8197  142.9765  161.4039 C.2     1  UNL1        0.0784
      7 N         142.0980  142.5171  162.8044 N.2     1  UNL1       -0.2519
      8 C         141.0962  143.1662  163.7129 C.2     1  UNL1        0.0627
      9 C         140.8852  143.0848  165.1957 C.3     1  UNL1        0.0717
     10 C         139.7769  143.8639  165.8394 C.2     1  UNL1       -0.0198
     11 C         138.8794  144.7244  165.0002 C.2     1  UNL1       -0.0042
     12 C         139.0904  144.8058  163.5174 C.2     1  UNL1        0.0006
     13 C         140.1988  144.0267  162.8737 C.2     1  UNL1        0.0111
     14 H         141.7178  142.5216  158.2065 H       1  UNL1        0.1245
     15 C         143.4397  142.0667  159.1068 C.ar    1  UNL1        0.0423
     16 C         143.4678  140.6336  158.6646 C.ar    1  UNL1        0.1194
     17 N         144.5812  140.4768  157.6717 N.ar    1  UNL1       -0.1679
     18 N         145.2412  141.8128  157.5003 N.ar    1  UNL1       -0.2476
     19 C         146.4026  142.1135  156.6001 C.3     1  UNL1        0.1537
     20 C         144.5357  142.7955  158.3873 C.ar    1  UNL1        0.0944
     21 C         140.2896  144.8432  157.6060 C.ar    1  UNL1        0.1319
     22 N         140.4360  146.2825  157.2099 N.ar    1  UNL1       -0.2282
     23 C         139.7805  146.4643  155.8730 C.ar    1  UNL1        0.1171
     24 C         139.2290  145.1374  155.4429 C.ar    1  UNL1        0.0942
     25 N         139.5437  144.1355  156.5139 N.ar    1  UNL1       -0.3385
     26 H         139.3029  143.1810  156.5022 H       1  UNL1        0.1672
     27 C         139.6921  147.7478  155.1016 C.ar    1  UNL1        0.1006
     28 C         140.3060  147.8463  153.7366 C.ar    1  UNL1        0.0230
     29 C         140.2176  149.1297  152.9652 C.ar    1  UNL1        0.0328
     30 C         139.5152  150.3146  153.5589 C.ar    1  UNL1        0.1592
     31 F         139.4267  151.5981  152.7876 F       1  UNL1       -0.2025
     32 C         138.9012  150.2162  154.9240 C.ar    1  UNL1        0.1284
     33 N         138.9897  148.9328  155.6953 N.ar    1  UNL1       -0.2399
     34 C         144.0637  140.0602  162.4992 C.ar    1  UNL1        0.2364
     35 N         142.9181  140.5423  161.6594 N.ar    1  UNL1       -0.1928
     36 C         143.3256  141.8354  161.0179 C.ar    1  UNL1        0.2023
     37 N         144.7230  142.1527  161.4611 N.ar    1  UNL1       -0.0586
     38 O         145.1792  141.0555  162.3766 O.2     1  UNL1       -0.3373
     39 C         142.9423  138.4779  164.2280 C.3     1  UNL1        0.0103
     40 C         144.0893  138.8036  163.3177 C.3     1  UNL1        0.0880
@<TRIPOS>BOND
     1    39    40    1
     2    40    34    1
     3    34    35   ar
     4    35    36   ar
     5     1    36    1
     6     1    15    1
     7    15    16   ar
     8    16    17   ar
     9    17    18   ar
    10    18    19    1
    11    18    20   ar
    12     1     2    1
    13     2     3    1
    14     3    21    1
    15    21    22   ar
    16    22    23   ar
    17    23    27    1
    18    27    28   ar
    19    28    29   ar
    20    29    30   ar
    21    30    31    1
    22    30    32   ar
    23    32    33   ar
    24    23    24   ar
    25    24    25   ar
    26     3     4    1
    27     4     5    1
    28     5     6    2
    29     6     7    1
    30     7     8    2
    31     8     9    1
    32     9    10    1
    33    10    11    2
    34    11    12    1
    35    12    13    2
    36    36    37   ar
    37    37    38   ar
    38    38    34   ar
    39     6     1    1
    40    13     8    1
    41    20    15   ar
    42    25    21   ar
    43    13     5    1
    44    33    27   ar
    45     2    14    1
    46    25    26    1
@<TRIPOS>MOLECULE
*****
 40 46 0 0 0
SMALL
GASTEIGER

@<TRIPOS>ATOM
      1 C         140.9801  142.5349  159.3136 C.3     1  UNL1        0.1558
      2 N         139.7135  142.1236  158.6235 N.3     1  UNL1       -0.2809
      3 C         139.7602  141.6054  157.2166 C.3     1  UNL1        0.1166
      4 C         141.0736  141.4986  156.4999 C.3     1  UNL1        0.0511
      5 C         142.3402  141.9100  157.1900 C.2     1  UNL1       -0.0037
      6 C         142.2935  142.4281  158.5969 C.2     1  UNL1        0.0784
      7 N         143.6957  142.7554  159.0171 N.2     1  UNL1       -0.2519
      8 C         144.6091  142.4396  157.8699 C.2     1  UNL1        0.0627
      9 C         146.0954  142.5603  157.7076 C.3     1  UNL1        0.0717
     10 C         146.7439  142.1585  156.4162 C.2     1  UNL1       -0.0198
     11 C         145.9061  141.6359  155.2870 C.2     1  UNL1       -0.0042
     12 C         144.4198  141.5152  155.4492 C.2     1  UNL1        0.0006
     13 C         143.7713  141.9171  156.7407 C.2     1  UNL1        0.0111
     14 H         139.1033  142.9409  158.6161 H       1  UNL1        0.1245
     15 C         139.9869  142.8188  160.4012 C.ar    1  UNL1        0.0423
     16 C         139.5815  144.1769  160.8925 C.ar    1  UNL1        0.1194
     17 N         138.5687  143.9918  161.9835 N.ar    1  UNL1       -0.1679
     18 N         138.3481  142.5194  162.1664 N.ar    1  UNL1       -0.2476
     19 C         137.4150  141.8837  163.1537 C.3     1  UNL1        0.1537
     20 C         139.2246  141.7945  161.1885 C.ar    1  UNL1        0.0944
     21 C         138.4935  141.1941  156.5263 C.ar    1  UNL1        0.1319
     22 N         137.1222  141.1821  157.1341 N.ar    1  UNL1       -0.2282
     23 C         136.1569  140.7031  156.0906 C.ar    1  UNL1        0.1171
     24 C         136.9317  140.4191  154.8380 C.ar    1  UNL1        0.0942
     25 N         138.3758  140.7226  155.1073 N.ar    1  UNL1       -0.3385
     26 H         139.1163  140.6287  154.4653 H       1  UNL1        0.1672
     27 C         134.6767  140.5372  156.2685 C.ar    1  UNL1        0.1006
     28 C         133.7263  141.2840  155.3803 C.ar    1  UNL1        0.0230
     29 C         132.2461  141.1182  155.5582 C.ar    1  UNL1        0.0328
     30 C         131.7165  140.2056  156.6243 C.ar    1  UNL1        0.1592
     31 F         130.2363  140.0398  156.8022 F       1  UNL1       -0.2025
     32 C         132.6670  139.4589  157.5125 C.ar    1  UNL1        0.1284
     33 N         134.1471  139.6247  157.3346 N.ar    1  UNL1       -0.2399
     34 C         143.3390  143.1470  162.3347 C.ar    1  UNL1        0.2364
     35 N         142.4738  142.2400  161.5106 N.ar    1  UNL1       -0.1928
     36 C         141.9019  143.0448  160.3815 C.ar    1  UNL1        0.2023
     37 N         142.4135  144.4492  160.5076 N.ar    1  UNL1       -0.0586
     38 O         143.3016  144.5123  161.7148 O.2     1  UNL1       -0.3373
     39 C         144.1842  143.6973  164.7290 C.3     1  UNL1        0.0103
     40 C         144.1066  142.7570  163.5629 C.3     1  UNL1        0.0880
@<TRIPOS>BOND
     1    39    40    1
     2    40    34    1
     3    34    35   ar
     4    35    36   ar
     5     1    36    1
     6     1    15    1
     7    15    16   ar
     8    16    17   ar
     9    17    18   ar
    10    18    19    1
    11    18    20   ar
    12     1     2    1
    13     2     3    1
    14     3    21    1
    15    21    22   ar
    16    22    23   ar
    17    23    27    1
    18    27    28   ar
    19    28    29   ar
    20    29    30   ar
    21    30    31    1
    22    30    32   ar
    23    32    33   ar
    24    23    24   ar
    25    24    25   ar
    26     3     4    1
    27     4     5    1
    28     5     6    2
    29     6     7    1
    30     7     8    2
    31     8     9    1
    32     9    10    1
    33    10    11    2
    34    11    12    1
    35    12    13    2
    36    36    37   ar
    37    37    38   ar
    38    38    34   ar
    39     6     1    1
    40    13     8    1
    41    20    15   ar
    42    25    21   ar
    43    13     5    1
    44    33    27   ar
    45     2    14    1
    46    25    26    1
@<TRIPOS>MOLECULE
*****
 40 46 0 0 0
SMALL
GASTEIGER

@<TRIPOS>ATOM
      1 C         141.7511  141.7230  158.8492 C.3     1  UNL1        0.1558
      2 N         141.6385  140.4586  158.0502 N.3     1  UNL1       -0.2809
      3 C         142.3159  139.2078  158.5261 C.3     1  UNL1        0.1166
      4 C         143.1060  139.2214  159.8011 C.3     1  UNL1        0.0511
      5 C         143.2187  140.4858  160.6001 C.2     1  UNL1       -0.0037
      6 C         142.5412  141.7366  160.1242 C.2     1  UNL1        0.0784
      7 N         142.8276  142.8249  161.1160 N.2     1  UNL1       -0.2519
      8 C         143.6820  142.2467  162.2048 C.2     1  UNL1        0.0627
      9 C         144.2712  142.8498  163.4454 C.3     1  UNL1        0.0717
     10 C         145.1020  142.0073  164.3672 C.2     1  UNL1       -0.0198
     11 C         145.3438  140.5616  164.0484 C.2     1  UNL1       -0.0042
     12 C         144.7546  139.9585  162.8078 C.2     1  UNL1        0.0006
     13 C         143.9238  140.8011  161.8860 C.2     1  UNL1        0.0111
     14 H         142.0126  140.6617  157.1233 H       1  UNL1        0.1245
     15 C         140.8971  142.2069  157.7150 C.ar    1  UNL1        0.0423
     16 C         141.3767  142.5580  156.3377 C.ar    1  UNL1        0.1194
     17 N         140.1895  142.9928  155.5304 N.ar    1  UNL1       -0.1679
     18 N         138.9763  142.9103  156.4087 N.ar    1  UNL1       -0.2476
     19 C         137.5724  143.2533  156.0073 C.3     1  UNL1        0.1537
     20 C         139.4136  142.4246  157.7588 C.ar    1  UNL1        0.0944
     21 C         142.2033  137.9432  157.7270 C.ar    1  UNL1        0.1319
     22 N         143.1217  136.7605  157.8142 N.ar    1  UNL1       -0.2282
     23 C         142.6385  135.7258  156.8416 C.ar    1  UNL1        0.1171
     24 C         141.4215  136.2691  156.1534 C.ar    1  UNL1        0.0942
     25 N         141.1525  137.6395  156.7006 N.ar    1  UNL1       -0.3385
     26 H         140.4157  138.2351  156.4330 H       1  UNL1        0.1672
     27 C         143.2628  134.3835  156.5998 C.ar    1  UNL1        0.1006
     28 C         144.1174  133.7521  157.6586 C.ar    1  UNL1        0.0230
     29 C         144.7417  132.4098  157.4168 C.ar    1  UNL1        0.0328
     30 C         144.5114  131.6989  156.1162 C.ar    1  UNL1        0.1592
     31 F         145.1357  130.3566  155.8743 F       1  UNL1       -0.2025
     32 C         143.6569  132.3303  155.0574 C.ar    1  UNL1        0.1284
     33 N         143.0326  133.6726  155.2992 N.ar    1  UNL1       -0.2399
     34 C         140.7267  145.1584  160.3371 C.ar    1  UNL1        0.2364
     35 N         140.5570  143.6715  160.2357 N.ar    1  UNL1       -0.1928
     36 C         141.5672  143.1555  159.2544 C.ar    1  UNL1        0.2023
     37 N         142.3614  144.3235  158.7493 N.ar    1  UNL1       -0.0586
     38 O         141.8419  145.5614  159.4185 O.2     1  UNL1       -0.3373
     39 C         139.3251  145.5750  162.4847 C.3     1  UNL1        0.0103
     40 C         139.9225  146.0804  161.2049 C.3     1  UNL1        0.0880
@<TRIPOS>BOND
     1    39    40    1
     2    40    34    1
     3    34    35   ar
     4    35    36   ar
     5     1    36    1
     6     1    15    1
     7    15    16   ar
     8    16    17   ar
     9    17    18   ar
    10    18    19    1
    11    18    20   ar
    12     1     2    1
    13     2     3    1
    14     3    21    1
    15    21    22   ar
    16    22    23   ar
    17    23    27    1
    18    27    28   ar
    19    28    29   ar
    20    29    30   ar
    21    30    31    1
    22    30    32   ar
    23    32    33   ar
    24    23    24   ar
    25    24    25   ar
    26     3     4    1
    27     4     5    1
    28     5     6    2
    29     6     7    1
    30     7     8    2
    31     8     9    1
    32     9    10    1
    33    10    11    2
    34    11    12    1
    35    12    13    2
    36    36    37   ar
    37    37    38   ar
    38    38    34   ar
    39     6     1    1
    40    13     8    1
    41    20    15   ar
    42    25    21   ar
    43    13     5    1
    44    33    27   ar
    45     2    14    1
    46    25    26    1
@<TRIPOS>MOLECULE
*****
 40 46 0 0 0
SMALL
GASTEIGER

@<TRIPOS>ATOM
      1 C         141.8871  143.6597  159.3857 C.3     1  UNL1        0.1558
      2 N         142.6167  143.2994  158.1257 N.3     1  UNL1       -0.2809
      3 C         143.9739  142.6650  158.2002 C.3     1  UNL1        0.1166
      4 C         144.6014  142.3909  159.5347 C.3     1  UNL1        0.0511
      5 C         143.8718  142.7512  160.7948 C.2     1  UNL1       -0.0037
      6 C         142.5146  143.3856  160.7203 C.2     1  UNL1        0.0784
      7 N         142.0392  143.6289  162.1220 N.2     1  UNL1       -0.2519
      8 C         143.1025  143.1449  163.0628 C.2     1  UNL1        0.0627
      9 C         143.1857  143.1281  164.5603 C.3     1  UNL1        0.0717
     10 C         144.4016  142.5687  165.2376 C.2     1  UNL1       -0.0198
     11 C         145.5342  142.0262  164.4174 C.2     1  UNL1       -0.0042
     12 C         145.4510  142.0431  162.9198 C.2     1  UNL1        0.0006
     13 C         144.2351  142.6024  162.2425 C.2     1  UNL1        0.0111
     14 H         142.7235  144.1612  157.5906 H       1  UNL1        0.1245
     15 C         140.8853  144.1138  158.3658 C.ar    1  UNL1        0.0423
     16 C         139.7129  143.3215  157.8680 C.ar    1  UNL1        0.1194
     17 N         138.9831  144.1580  156.8591 N.ar    1  UNL1       -0.1679
     18 N         139.7044  145.4671  156.7334 N.ar    1  UNL1       -0.2476
     19 C         139.3179  146.6039  155.8344 C.3     1  UNL1        0.1537
     20 C         140.8800  145.4398  157.6646 C.ar    1  UNL1        0.0944
     21 C         144.7036  142.3047  156.9400 C.ar    1  UNL1        0.1319
     22 N         146.1904  142.3320  156.7438 N.ar    1  UNL1       -0.2282
     23 C         146.4803  141.8980  155.3375 C.ar    1  UNL1        0.1171
     24 C         145.1726  141.6025  154.6647 C.ar    1  UNL1        0.0942
     25 N         144.0746  141.8539  155.6551 N.ar    1  UNL1       -0.3385
     26 H         143.1103  141.7425  155.4907 H       1  UNL1        0.1672
     27 C         147.8393  141.7802  154.7135 C.ar    1  UNL1        0.1006
     28 C         149.0646  141.7826  155.5788 C.ar    1  UNL1        0.0230
     29 C         150.4236  141.6649  154.9550 C.ar    1  UNL1        0.0328
     30 C         150.5573  141.5447  153.4658 C.ar    1  UNL1        0.1592
     31 F         151.9164  141.4269  152.8419 F       1  UNL1       -0.2025
     32 C         149.3321  141.5423  152.6005 C.ar    1  UNL1        0.1284
     33 N         147.9731  141.6601  153.2244 N.ar    1  UNL1       -0.2399
     34 C         138.9440  144.2712  161.8414 C.ar    1  UNL1        0.2364
     35 N         139.8407  143.3436  161.0761 N.ar    1  UNL1       -0.1928
     36 C         140.8095  144.1777  160.2917 C.ar    1  UNL1        0.2023
     37 N         140.5118  145.6209  160.5721 N.ar    1  UNL1       -0.0586
     38 O         139.3588  145.6786  161.5299 O.2     1  UNL1       -0.3373
     39 C         137.5556  142.4089  163.0051 C.3     1  UNL1        0.0103
     40 C         137.8286  143.8630  162.7574 C.3     1  UNL1        0.0880
@<TRIPOS>BOND
     1    39    40    1
     2    40    34    1
     3    34    35   ar
     4    35    36   ar
     5     1    36    1
     6     1    15    1
     7    15    16   ar
     8    16    17   ar
     9    17    18   ar
    10    18    19    1
    11    18    20   ar
    12     1     2    1
    13     2     3    1
    14     3    21    1
    15    21    22   ar
    16    22    23   ar
    17    23    27    1
    18    27    28   ar
    19    28    29   ar
    20    29    30   ar
    21    30    31    1
    22    30    32   ar
    23    32    33   ar
    24    23    24   ar
    25    24    25   ar
    26     3     4    1
    27     4     5    1
    28     5     6    2
    29     6     7    1
    30     7     8    2
    31     8     9    1
    32     9    10    1
    33    10    11    2
    34    11    12    1
    35    12    13    2
    36    36    37   ar
    37    37    38   ar
    38    38    34   ar
    39     6     1    1
    40    13     8    1
    41    20    15   ar
    42    25    21   ar
    43    13     5    1
    44    33    27   ar
    45     2    14    1
    46    25    26    1
