@<TRIPOS>MOLECULE
*****
 26 28 0 0 0
SMALL
GASTEIGER

@<TRIPOS>ATOM
      1 C         144.1862  139.6615  161.1974 C.3     1  UNL1        0.0902
      2 N         144.3190  140.7611  162.2088 N.3     1  UNL1       -0.2639
      3 C         144.7294  140.4407  163.6156 C.3     1  UNL1        0.0992
      4 C         143.7842  140.7022  164.7506 C.2     1  UNL1       -0.0088
      5 C         143.8304  142.0130  165.4782 C.2     1  UNL1       -0.0032
      6 C         142.8852  142.2745  166.6133 C.ar    1  UNL1       -0.0003
      7 C         141.4338  142.5329  166.3363 C.ar    1  UNL1       -0.0001
      8 C         140.4886  142.7944  167.4712 C.ar    1  UNL1        0.0039
      9 C         140.9948  142.7973  168.8832 C.ar    1  UNL1        0.0714
     10 C         142.4461  142.5389  169.1602 C.ar    1  UNL1        0.0039
     11 C         143.3913  142.2774  168.0253 C.ar    1  UNL1       -0.0001
     12 C         140.0495  143.0588  170.0183 C.3     1  UNL1        0.4186
     13 F         139.1043  143.3202  171.1532 F       1  UNL1       -0.1659
     14 F         140.5023  144.4880  170.0661 F       1  UNL1       -0.1659
     15 F         139.5967  141.6296  169.9704 F       1  UNL1       -0.1659
     16 C         144.0415  142.1812  161.8135 C.3     1  UNL1        0.0995
     17 C         142.7978  142.8654  162.2986 C.ar    1  UNL1       -0.0031
     18 C         142.8714  144.2656  162.8316 C.ar    1  UNL1       -0.0030
     19 C         141.6279  144.9498  163.3166 C.ar    1  UNL1       -0.0016
     20 C         140.3106  144.2338  163.2687 C.ar    1  UNL1        0.0119
     21 C         140.2370  142.8337  162.7357 C.ar    1  UNL1        0.1342
     22 C         141.4806  142.1494  162.2506 C.ar    1  UNL1        0.0337
     23 O         138.9198  142.1177  162.6878 O.3     1  UNL1       -0.4758
     24 C         137.6762  142.8019  163.1728 C.3     1  UNL1        0.2057
     25 C         137.7498  144.2021  163.7058 C.3     1  UNL1        0.0521
     26 C         139.0670  144.9180  163.7538 C.3     1  UNL1        0.0333
@<TRIPOS>BOND
     1     1     2    1
     2     2     3    1
     3     3     4    1
     4     4     5    2
     5     5     6    1
     6     6     7   ar
     7     7     8   ar
     8     8     9   ar
     9     9    12    1
    10    12    13    1
    11    12    14    1
    12    12    15    1
    13     9    10   ar
    14    10    11   ar
    15     2    16    1
    16    16    17    1
    17    17    18   ar
    18    18    19   ar
    19    19    20   ar
    20    20    21   ar
    21    21    22   ar
    22    21    23    1
    23    23    24    1
    24    24    25    1
    25    25    26    1
    26    11     6   ar
    27    22    17   ar
    28    26    20    1
@<TRIPOS>MOLECULE
*****
 26 28 0 0 0
SMALL
GASTEIGER

@<TRIPOS>ATOM
      1 C         142.2664  137.7544  161.3179 C.3     1  UNL1        0.0902
      2 N         141.1386  137.9196  162.2929 N.3     1  UNL1       -0.2639
      3 C         141.2872  137.4275  163.7021 C.3     1  UNL1        0.0992
      4 C         141.7970  138.3504  164.7690 C.2     1  UNL1       -0.0088
      5 C         140.8302  139.0940  165.6421 C.2     1  UNL1       -0.0032
      6 C         141.3400  140.0170  166.7091 C.ar    1  UNL1       -0.0003
      7 C         142.2672  139.4992  167.7683 C.ar    1  UNL1       -0.0001
      8 C         142.7770  140.4221  168.8352 C.ar    1  UNL1        0.0039
      9 C         142.3596  141.8627  168.8429 C.ar    1  UNL1        0.0714
     10 C         141.4323  142.3805  167.7836 C.ar    1  UNL1        0.0039
     11 C         140.9225  141.4577  166.7167 C.ar    1  UNL1       -0.0001
     12 C         142.8694  142.7857  169.9098 C.3     1  UNL1        0.4186
     13 F         143.3791  143.7086  170.9767 F       1  UNL1       -0.1659
     14 F         141.4767  143.2959  170.1338 F       1  UNL1       -0.1659
     15 F         144.2620  142.2755  169.6859 F       1  UNL1       -0.1659
     16 C         139.8621  138.5770  161.8588 C.3     1  UNL1        0.0995
     17 C         139.3988  139.8342  162.5334 C.ar    1  UNL1       -0.0031
     18 C         138.0178  139.9085  163.1140 C.ar    1  UNL1       -0.0030
     19 C         137.5544  141.1656  163.7885 C.ar    1  UNL1       -0.0016
     20 C         138.4721  142.3484  163.8824 C.ar    1  UNL1        0.0119
     21 C         139.8532  142.2741  163.3017 C.ar    1  UNL1        0.1342
     22 C         140.3165  141.0169  162.6272 C.ar    1  UNL1        0.0337
     23 O         140.7709  143.4569  163.3955 O.3     1  UNL1       -0.4758
     24 C         140.3075  144.7140  164.0700 C.3     1  UNL1        0.2057
     25 C         138.9265  144.7883  164.6507 C.3     1  UNL1        0.0521
     26 C         138.0088  143.6055  164.5569 C.3     1  UNL1        0.0333
@<TRIPOS>BOND
     1     1     2    1
     2     2     3    1
     3     3     4    1
     4     4     5    2
     5     5     6    1
     6     6     7   ar
     7     7     8   ar
     8     8     9   ar
     9     9    12    1
    10    12    13    1
    11    12    14    1
    12    12    15    1
    13     9    10   ar
    14    10    11   ar
    15     2    16    1
    16    16    17    1
    17    17    18   ar
    18    18    19   ar
    19    19    20   ar
    20    20    21   ar
    21    21    22   ar
    22    21    23    1
    23    23    24    1
    24    24    25    1
    25    25    26    1
    26    11     6   ar
    27    22    17   ar
    28    26    20    1
@<TRIPOS>MOLECULE
*****
 26 28 0 0 0
SMALL
GASTEIGER

@<TRIPOS>ATOM
      1 C         139.9042  145.5308  162.1066 C.3     1  UNL1        0.0902
      2 N         139.0403  144.5955  162.8995 N.3     1  UNL1       -0.2639
      3 C         138.8226  144.8354  164.3641 C.3     1  UNL1        0.0992
      4 C         139.2373  143.7970  165.3640 C.2     1  UNL1       -0.0088
      5 C         140.6241  143.2270  165.3220 C.2     1  UNL1       -0.0032
      6 C         141.0387  142.1886  166.3220 C.ar    1  UNL1       -0.0003
      7 C         142.4304  142.1999  166.8817 C.ar    1  UNL1       -0.0001
      8 C         142.8450  141.1615  167.8816 C.ar    1  UNL1        0.0039
      9 C         141.8681  140.1118  168.3217 C.ar    1  UNL1        0.0714
     10 C         140.4765  140.1006  167.7620 C.ar    1  UNL1        0.0039
     11 C         140.0618  141.1389  166.7621 C.ar    1  UNL1       -0.0001
     12 C         142.2827  139.0734  169.3216 C.3     1  UNL1        0.4186
     13 F         142.6973  138.0350  170.3215 F       1  UNL1       -0.1659
     14 F         141.3713  139.6906  170.3405 F       1  UNL1       -0.1659
     15 F         143.1941  138.4561  168.3027 F       1  UNL1       -0.1659
     16 C         138.3941  143.4203  162.2278 C.3     1  UNL1        0.0995
     17 C         138.7048  142.0276  162.6906 C.ar    1  UNL1       -0.0031
     18 C         137.6997  141.2652  163.5020 C.ar    1  UNL1       -0.0030
     19 C         138.0104  139.8726  163.9648 C.ar    1  UNL1       -0.0016
     20 C         139.3262  139.2424  163.6161 C.ar    1  UNL1        0.0119
     21 C         140.3313  140.0049  162.8047 C.ar    1  UNL1        0.1342
     22 C         140.0206  141.3975  162.3419 C.ar    1  UNL1        0.0337
     23 O         141.6471  139.3748  162.4560 O.3     1  UNL1       -0.4758
     24 C         141.9578  137.9822  162.9188 C.3     1  UNL1        0.2057
     25 C         140.9527  137.2198  163.7302 C.3     1  UNL1        0.0521
     26 C         139.6369  137.8499  164.0789 C.3     1  UNL1        0.0333
@<TRIPOS>BOND
     1     1     2    1
     2     2     3    1
     3     3     4    1
     4     4     5    2
     5     5     6    1
     6     6     7   ar
     7     7     8   ar
     8     8     9   ar
     9     9    12    1
    10    12    13    1
    11    12    14    1
    12    12    15    1
    13     9    10   ar
    14    10    11   ar
    15     2    16    1
    16    16    17    1
    17    17    18   ar
    18    18    19   ar
    19    19    20   ar
    20    20    21   ar
    21    21    22   ar
    22    21    23    1
    23    23    24    1
    24    24    25    1
    25    25    26    1
    26    11     6   ar
    27    22    17   ar
    28    26    20    1
@<TRIPOS>MOLECULE
*****
 26 28 0 0 0
SMALL
GASTEIGER

@<TRIPOS>ATOM
      1 C         138.4086  138.3165  161.8761 C.3     1  UNL1        0.0902
      2 N         138.3644  139.1194  163.1423 N.3     1  UNL1       -0.2639
      3 C         138.7422  138.4834  164.4472 C.3     1  UNL1        0.0992
      4 C         139.3118  139.3217  165.5530 C.2     1  UNL1       -0.0088
      5 C         140.7884  139.5781  165.6155 C.2     1  UNL1       -0.0032
      6 C         141.3579  140.4165  166.7213 C.ar    1  UNL1       -0.0003
      7 C         142.3815  141.4689  166.4136 C.ar    1  UNL1       -0.0001
      8 C         142.9510  142.3073  167.5194 C.ar    1  UNL1        0.0039
      9 C         142.4970  142.0931  168.9329 C.ar    1  UNL1        0.0714
     10 C         141.4734  141.0407  169.2406 C.ar    1  UNL1        0.0039
     11 C         140.9039  140.2023  168.1348 C.ar    1  UNL1       -0.0001
     12 C         143.0665  142.9315  170.0387 C.3     1  UNL1        0.4186
     13 F         143.6361  143.7698  171.1446 F       1  UNL1       -0.1659
     14 F         144.3638  142.1856  169.9360 F       1  UNL1       -0.1659
     15 F         141.7692  143.6774  170.1415 F       1  UNL1       -0.1659
     16 C         137.9423  140.5582  163.1036 C.3     1  UNL1        0.0995
     17 C         138.9499  141.6422  163.3482 C.ar    1  UNL1       -0.0031
     18 C         138.6630  142.7206  164.3507 C.ar    1  UNL1       -0.0030
     19 C         139.6705  143.8046  164.5952 C.ar    1  UNL1       -0.0016
     20 C         140.9650  143.8102  163.8374 C.ar    1  UNL1        0.0119
     21 C         141.2520  142.7319  162.8349 C.ar    1  UNL1        0.1342
     22 C         140.2444  141.6479  162.5904 C.ar    1  UNL1        0.0337
     23 O         142.5464  142.7376  162.0771 O.3     1  UNL1       -0.4758
     24 C         143.5539  143.8215  162.3217 C.3     1  UNL1        0.2057
     25 C         143.2670  144.8999  163.3241 C.3     1  UNL1        0.0521
     26 C         141.9725  144.8942  164.0820 C.3     1  UNL1        0.0333
@<TRIPOS>BOND
     1     1     2    1
     2     2     3    1
     3     3     4    1
     4     4     5    2
     5     5     6    1
     6     6     7   ar
     7     7     8   ar
     8     8     9   ar
     9     9    12    1
    10    12    13    1
    11    12    14    1
    12    12    15    1
    13     9    10   ar
    14    10    11   ar
    15     2    16    1
    16    16    17    1
    17    17    18   ar
    18    18    19   ar
    19    19    20   ar
    20    20    21   ar
    21    21    22   ar
    22    21    23    1
    23    23    24    1
    24    24    25    1
    25    25    26    1
    26    11     6   ar
    27    22    17   ar
    28    26    20    1
@<TRIPOS>MOLECULE
*****
 26 28 0 0 0
SMALL
GASTEIGER

@<TRIPOS>ATOM
      1 C         137.8108  139.6382  161.3849 C.3     1  UNL1        0.0902
      2 N         138.8640  138.6354  161.7524 N.3     1  UNL1       -0.2639
      3 C         138.6079  137.6474  162.8517 C.3     1  UNL1        0.0992
      4 C         139.1970  137.8707  164.2129 C.2     1  UNL1       -0.0088
      5 C         139.6102  139.2497  164.6345 C.2     1  UNL1       -0.0032
      6 C         140.1993  139.4729  165.9958 C.ar    1  UNL1       -0.0003
      7 C         139.3047  139.7898  167.1574 C.ar    1  UNL1       -0.0001
      8 C         139.8937  140.0130  168.5187 C.ar    1  UNL1        0.0039
      9 C         141.3773  139.9192  168.7184 C.ar    1  UNL1        0.0714
     10 C         142.2720  139.6023  167.5569 C.ar    1  UNL1        0.0039
     11 C         141.6829  139.3791  166.1956 C.ar    1  UNL1       -0.0001
     12 C         141.9665  140.1424  170.0798 C.3     1  UNL1        0.4186
     13 F         142.5555  140.3656  171.4410 F       1  UNL1       -0.1659
     14 F         141.6308  141.6013  169.9858 F       1  UNL1       -0.1659
     15 F         142.3021  138.6835  170.1738 F       1  UNL1       -0.1659
     16 C         140.1733  138.6206  161.0207 C.3     1  UNL1        0.0995
     17 C         141.4244  139.0748  161.7126 C.ar    1  UNL1       -0.0031
     18 C         142.3752  138.0643  162.2826 C.ar    1  UNL1       -0.0030
     19 C         143.6262  138.5184  162.9745 C.ar    1  UNL1       -0.0016
     20 C         143.9264  139.9831  163.0964 C.ar    1  UNL1        0.0119
     21 C         142.9756  140.9935  162.5264 C.ar    1  UNL1        0.1342
     22 C         141.7246  140.5394  161.8345 C.ar    1  UNL1        0.0337
     23 O         143.2758  142.4581  162.6483 O.3     1  UNL1       -0.4758
     24 C         144.5268  142.9122  163.3401 C.3     1  UNL1        0.2057
     25 C         145.4776  141.9017  163.9101 C.3     1  UNL1        0.0521
     26 C         145.1774  140.4372  163.7883 C.3     1  UNL1        0.0333
@<TRIPOS>BOND
     1     1     2    1
     2     2     3    1
     3     3     4    1
     4     4     5    2
     5     5     6    1
     6     6     7   ar
     7     7     8   ar
     8     8     9   ar
     9     9    12    1
    10    12    13    1
    11    12    14    1
    12    12    15    1
    13     9    10   ar
    14    10    11   ar
    15     2    16    1
    16    16    17    1
    17    17    18   ar
    18    18    19   ar
    19    19    20   ar
    20    20    21   ar
    21    21    22   ar
    22    21    23    1
    23    23    24    1
    24    24    25    1
    25    25    26    1
    26    11     6   ar
    27    22    17   ar
    28    26    20    1
@<TRIPOS>MOLECULE
*****
 26 28 0 0 0
SMALL
GASTEIGER

@<TRIPOS>ATOM
      1 C         138.4663  139.9269  159.2696 C.3     1  UNL1        0.0902
      2 N         138.4332  139.4364  160.6867 N.3     1  UNL1       -0.2639
      3 C         137.6991  140.2196  161.7344 C.3     1  UNL1        0.0992
      4 C         138.4542  140.8455  162.8693 C.2     1  UNL1       -0.0088
      5 C         138.2242  140.3729  164.2742 C.2     1  UNL1       -0.0032
      6 C         138.9794  140.9988  165.4092 C.ar    1  UNL1       -0.0003
      7 C         139.3893  140.1656  166.5872 C.ar    1  UNL1       -0.0001
      8 C         140.1444  140.7915  167.7221 C.ar    1  UNL1        0.0039
      9 C         140.4896  142.2505  167.6790 C.ar    1  UNL1        0.0714
     10 C         140.0798  143.0837  166.5009 C.ar    1  UNL1        0.0039
     11 C         139.3247  142.4579  165.3660 C.ar    1  UNL1       -0.0001
     12 C         141.2448  142.8765  168.8139 C.3     1  UNL1        0.4186
     13 F         142.0000  143.5024  169.9488 F       1  UNL1       -0.1659
     14 F         142.2953  141.8117  168.7021 F       1  UNL1       -0.1659
     15 F         140.1943  143.9413  168.9257 F       1  UNL1       -0.1659
     16 C         139.1341  138.1628  161.0560 C.3     1  UNL1        0.0995
     17 C         140.0880  138.1400  162.2135 C.ar    1  UNL1       -0.0031
     18 C         139.7423  137.3729  163.4553 C.ar    1  UNL1       -0.0030
     19 C         140.6962  137.3502  164.6126 C.ar    1  UNL1       -0.0016
     20 C         141.9958  138.0946  164.5283 C.ar    1  UNL1        0.0119
     21 C         142.3414  138.8617  163.2865 C.ar    1  UNL1        0.1342
     22 C         141.3875  138.8844  162.1291 C.ar    1  UNL1        0.0337
     23 O         143.6409  139.6061  163.2021 O.3     1  UNL1       -0.4758
     24 C         144.5947  139.5834  164.3595 C.3     1  UNL1        0.2057
     25 C         144.2491  138.8163  165.6013 C.3     1  UNL1        0.0521
     26 C         142.9496  138.0719  165.6857 C.3     1  UNL1        0.0333
@<TRIPOS>BOND
     1     1     2    1
     2     2     3    1
     3     3     4    1
     4     4     5    2
     5     5     6    1
     6     6     7   ar
     7     7     8   ar
     8     8     9   ar
     9     9    12    1
    10    12    13    1
    11    12    14    1
    12    12    15    1
    13     9    10   ar
    14    10    11   ar
    15     2    16    1
    16    16    17    1
    17    17    18   ar
    18    18    19   ar
    19    19    20   ar
    20    20    21   ar
    21    21    22   ar
    22    21    23    1
    23    23    24    1
    24    24    25    1
    25    25    26    1
    26    11     6   ar
    27    22    17   ar
    28    26    20    1
@<TRIPOS>MOLECULE
*****
 26 28 0 0 0
SMALL
GASTEIGER

@<TRIPOS>ATOM
      1 C         143.0115  137.8739  161.7306 C.3     1  UNL1        0.0902
      2 N         141.6031  137.8904  162.2465 N.3     1  UNL1       -0.2639
      3 C         141.2329  137.0645  163.4427 C.3     1  UNL1        0.0992
      4 C         140.9554  137.7310  164.7575 C.2     1  UNL1       -0.0088
      5 C         141.8521  138.8301  165.2452 C.2     1  UNL1       -0.0032
      6 C         141.5745  139.4967  166.5601 C.ar    1  UNL1       -0.0003
      7 C         140.2693  140.2014  166.7829 C.ar    1  UNL1       -0.0001
      8 C         139.9917  140.8679  168.0977 C.ar    1  UNL1        0.0039
      9 C         141.0194  140.8297  169.1896 C.ar    1  UNL1        0.0714
     10 C         142.3246  140.1249  168.9668 C.ar    1  UNL1        0.0039
     11 C         142.6022  139.4584  167.6520 C.ar    1  UNL1       -0.0001
     12 C         140.7418  141.4962  170.5045 C.3     1  UNL1        0.4186
     13 F         140.4642  142.1627  171.8192 F       1  UNL1       -0.1659
     14 F         139.3293  141.7584  170.0733 F       1  UNL1       -0.1659
     15 F         142.1543  141.2340  170.9356 F       1  UNL1       -0.1659
     16 C         140.5650  138.7327  161.5662 C.3     1  UNL1        0.0995
     17 C         139.8854  139.8383  162.3185 C.ar    1  UNL1       -0.0031
     18 C         138.4741  139.6638  162.7956 C.ar    1  UNL1       -0.0030
     19 C         137.7946  140.7693  163.5478 C.ar    1  UNL1       -0.0016
     20 C         138.5263  142.0496  163.8229 C.ar    1  UNL1        0.0119
     21 C         139.9376  142.2242  163.3457 C.ar    1  UNL1        0.1342
     22 C         140.6172  141.1185  162.5935 C.ar    1  UNL1        0.0337
     23 O         140.6694  143.5043  163.6208 O.3     1  UNL1       -0.4758
     24 C         139.9898  144.6099  164.3730 C.3     1  UNL1        0.2057
     25 C         138.5785  144.4353  164.8501 C.3     1  UNL1        0.0521
     26 C         137.8468  143.1551  164.5751 C.3     1  UNL1        0.0333
@<TRIPOS>BOND
     1     1     2    1
     2     2     3    1
     3     3     4    1
     4     4     5    2
     5     5     6    1
     6     6     7   ar
     7     7     8   ar
     8     8     9   ar
     9     9    12    1
    10    12    13    1
    11    12    14    1
    12    12    15    1
    13     9    10   ar
    14    10    11   ar
    15     2    16    1
    16    16    17    1
    17    17    18   ar
    18    18    19   ar
    19    19    20   ar
    20    20    21   ar
    21    21    22   ar
    22    21    23    1
    23    23    24    1
    24    24    25    1
    25    25    26    1
    26    11     6   ar
    27    22    17   ar
    28    26    20    1
@<TRIPOS>MOLECULE
*****
 26 28 0 0 0
SMALL
GASTEIGER

@<TRIPOS>ATOM
      1 C         141.7370  141.9030  170.3755 C.3     1  UNL1        0.0902
      2 N         141.4638  140.6182  169.6513 N.3     1  UNL1       -0.2639
      3 C         142.6021  139.7306  169.2432 C.3     1  UNL1        0.0992
      4 C         142.6343  139.1378  167.8657 C.2     1  UNL1       -0.0088
      5 C         142.8925  140.0157  166.6772 C.2     1  UNL1       -0.0032
      6 C         142.9247  139.4228  165.2997 C.ar    1  UNL1       -0.0003
      7 C         141.7710  138.5981  164.8110 C.ar    1  UNL1       -0.0001
      8 C         141.8031  138.0052  163.4336 C.ar    1  UNL1        0.0039
      9 C         142.9890  138.2370  162.5448 C.ar    1  UNL1        0.0714
     10 C         144.1427  139.0616  163.0335 C.ar    1  UNL1        0.0039
     11 C         144.1106  139.6545  164.4109 C.ar    1  UNL1       -0.0001
     12 C         143.0212  137.6440  161.1673 C.3     1  UNL1        0.4186
     13 F         143.0533  137.0512  159.7898 F       1  UNL1       -0.1659
     14 F         141.5661  137.9652  160.9951 F       1  UNL1       -0.1659
     15 F         144.4762  137.3229  161.3394 F       1  UNL1       -0.1659
     16 C         140.0524  140.2208  169.3353 C.3     1  UNL1        0.0995
     17 C         139.5447  140.3130  167.9268 C.ar    1  UNL1       -0.0031
     18 C         138.7078  139.2061  167.3573 C.ar    1  UNL1       -0.0030
     19 C         138.2001  139.2982  165.9488 C.ar    1  UNL1       -0.0016
     20 C         138.5294  140.4973  165.1098 C.ar    1  UNL1        0.0119
     21 C         139.3663  141.6042  165.6793 C.ar    1  UNL1        0.1342
     22 C         139.8740  141.5120  167.0878 C.ar    1  UNL1        0.0337
     23 O         139.6956  142.8032  164.8403 O.3     1  UNL1       -0.4758
     24 C         139.1880  142.8953  163.4319 C.3     1  UNL1        0.2057
     25 C         138.3511  141.7884  162.8624 C.3     1  UNL1        0.0521
     26 C         138.0218  140.5894  163.7013 C.3     1  UNL1        0.0333
@<TRIPOS>BOND
     1     1     2    1
     2     2     3    1
     3     3     4    1
     4     4     5    2
     5     5     6    1
     6     6     7   ar
     7     7     8   ar
     8     8     9   ar
     9     9    12    1
    10    12    13    1
    11    12    14    1
    12    12    15    1
    13     9    10   ar
    14    10    11   ar
    15     2    16    1
    16    16    17    1
    17    17    18   ar
    18    18    19   ar
    19    19    20   ar
    20    20    21   ar
    21    21    22   ar
    22    21    23    1
    23    23    24    1
    24    24    25    1
    25    25    26    1
    26    11     6   ar
    27    22    17   ar
    28    26    20    1
@<TRIPOS>MOLECULE
*****
 26 28 0 0 0
SMALL
GASTEIGER

@<TRIPOS>ATOM
      1 C         141.1887  141.6430  171.1268 C.3     1  UNL1        0.0902
      2 N         141.0343  140.6986  169.9717 N.3     1  UNL1       -0.2639
      3 C         139.6707  140.4050  169.4201 C.3     1  UNL1        0.0992
      4 C         139.4364  140.4444  167.9390 C.2     1  UNL1       -0.0088
      5 C         138.9320  139.2244  167.2268 C.2     1  UNL1       -0.0032
      6 C         138.6976  139.2639  165.7457 C.ar    1  UNL1       -0.0003
      7 C         138.9893  138.0544  164.9078 C.ar    1  UNL1       -0.0001
      8 C         138.7551  138.0938  163.4268 C.ar    1  UNL1        0.0039
      9 C         138.2291  139.3426  162.7836 C.ar    1  UNL1        0.0714
     10 C         137.9374  140.5521  163.6215 C.ar    1  UNL1        0.0039
     11 C         138.1717  140.5127  165.1026 C.ar    1  UNL1       -0.0001
     12 C         137.9948  139.3820  161.3025 C.3     1  UNL1        0.4186
     13 F         137.7604  139.4215  159.8215 F       1  UNL1       -0.1659
     14 F         137.2817  140.6934  161.4503 F       1  UNL1       -0.1659
     15 F         138.7079  138.0707  161.1547 F       1  UNL1       -0.1659
     16 C         142.2435  140.0477  169.3684 C.3     1  UNL1        0.0995
     17 C         142.7090  140.4518  168.0008 C.ar    1  UNL1       -0.0031
     18 C         142.9396  141.8999  167.6846 C.ar    1  UNL1       -0.0030
     19 C         143.4051  142.3040  166.3172 C.ar    1  UNL1       -0.0016
     20 C         143.6401  141.2601  165.2659 C.ar    1  UNL1        0.0119
     21 C         143.4095  139.8121  165.5821 C.ar    1  UNL1        0.1342
     22 C         142.9439  139.4079  166.9496 C.ar    1  UNL1        0.0337
     23 O         143.6444  138.7682  164.5309 O.3     1  UNL1       -0.4758
     24 C         144.1099  139.1723  163.1635 C.3     1  UNL1        0.2057
     25 C         144.3405  140.6204  162.8473 C.3     1  UNL1        0.0521
     26 C         144.1056  141.6643  163.8985 C.3     1  UNL1        0.0333
@<TRIPOS>BOND
     1     1     2    1
     2     2     3    1
     3     3     4    1
     4     4     5    2
     5     5     6    1
     6     6     7   ar
     7     7     8   ar
     8     8     9   ar
     9     9    12    1
    10    12    13    1
    11    12    14    1
    12    12    15    1
    13     9    10   ar
    14    10    11   ar
    15     2    16    1
    16    16    17    1
    17    17    18   ar
    18    18    19   ar
    19    19    20   ar
    20    20    21   ar
    21    21    22   ar
    22    21    23    1
    23    23    24    1
    24    24    25    1
    25    25    26    1
    26    11     6   ar
    27    22    17   ar
    28    26    20    1
