@<TRIPOS>MOLECULE
*****
 31 35 0 0 0
SMALL
GASTEIGER

@<TRIPOS>ATOM
      1 C         138.4989  137.6073  163.7343 C.3     1  UNL1        0.0298
      2 C         139.4630  138.6541  164.2083 C.3     1  UNL1        0.1343
      3 C         139.4303  139.1126  165.6361 C.ar    1  UNL1        0.1615
      4 N         138.5668  138.7178  166.7974 N.ar    1  UNL1       -0.1316
      5 N         138.9974  139.5206  167.9891 N.ar    1  UNL1       -0.1274
      6 C         140.1269  140.4115  167.5643 C.ar    1  UNL1        0.1841
      7 N         140.3944  140.1594  166.1100 N.ar    1  UNL1       -0.2944
      8 C         141.3914  140.7477  165.1561 C.3     1  UNL1        0.1302
      9 C         141.4242  140.2892  163.7283 C.3     1  UNL1        0.1186
     10 N         140.4601  139.2425  163.2544 N.am    1  UNL1       -0.2688
     11 C         140.4929  138.7840  161.8265 C.2     1  UNL1        0.2493
     12 O         139.5287  137.7372  161.3525 O.2     1  UNL1       -0.2699
     13 C         140.8602  141.3839  168.4400 C.ar    1  UNL1        0.1202
     14 C         142.2947  141.1345  168.8003 C.ar    1  UNL1        0.0225
     15 C         143.0280  142.1069  169.6760 C.ar    1  UNL1        0.0064
     16 C         142.3268  143.3286  170.1914 C.ar    1  UNL1        0.0575
     17 C         140.8921  143.5779  169.8310 C.ar    1  UNL1        0.2217
     18 O         140.1909  144.7997  170.3464 O.3     1  UNL1       -0.4919
     19 N         140.1589  142.6056  168.9553 N.ar    1  UNL1       -0.2087
     20 H         140.6490  145.4070  170.8934 H       1  UNL1        0.2937
     21 C         141.4898  139.3723  160.8726 C.ar    1  UNL1        0.0536
     22 C         142.8565  138.7668  160.7482 C.ar    1  UNL1        0.0045
     23 C         143.8535  139.3552  159.7943 C.ar    1  UNL1        0.0006
     24 C         143.4837  140.5489  158.9648 C.ar    1  UNL1        0.0060
     25 C         142.1169  141.1544  159.0891 C.ar    1  UNL1        0.0006
     26 C         141.1200  140.5661  160.0430 C.ar    1  UNL1        0.0045
     27 C         144.4806  141.1373  158.0108 C.ar    1  UNL1        0.0295
     28 C         145.2559  142.4048  158.2162 C.ar    1  UNL1        0.0070
     29 C         146.1316  142.6122  157.0163 C.ar    1  UNL1        0.0075
     30 C         145.8976  141.4729  156.0691 C.ar    1  UNL1        0.0354
     31 S         144.8772  140.5613  156.6838 S.2     1  UNL1       -0.0864
@<TRIPOS>BOND
     1     2     1    1
     2     2     3    1
     3     3     4   ar
     4     4     5   ar
     5     5     6   ar
     6     6    13    1
     7    13    14   ar
     8    14    15   ar
     9    15    16   ar
    10    16    17   ar
    11    17    18    1
    12    17    19   ar
    13     6     7   ar
    14     7     8    1
    15     8     9    1
    16     9    10    1
    17    10    11   am
    18    11    12    2
    19    11    21    1
    20    21    22   ar
    21    22    23   ar
    22    23    24   ar
    23    24    27    1
    24    27    28   ar
    25    28    29   ar
    26    29    30   ar
    27    30    31   ar
    28    24    25   ar
    29    25    26   ar
    30    10     2    1
    31    26    21   ar
    32     7     3   ar
    33    31    27   ar
    34    19    13   ar
    35    18    20    1
@<TRIPOS>MOLECULE
*****
 31 35 0 0 0
SMALL
GASTEIGER

@<TRIPOS>ATOM
      1 C         138.2968  137.6986  163.4599 C.3     1  UNL1        0.0298
      2 C         139.3073  138.6744  163.9860 C.3     1  UNL1        0.1343
      3 C         139.2801  139.0767  165.4308 C.ar    1  UNL1        0.1615
      4 N         138.3831  138.6811  166.5660 N.ar    1  UNL1       -0.1316
      5 N         138.8393  139.4124  167.7937 N.ar    1  UNL1       -0.1274
      6 C         140.0182  140.2600  167.4171 C.ar    1  UNL1        0.1841
      7 N         140.2907  140.0525  165.9567 N.ar    1  UNL1       -0.2944
      8 C         141.3283  140.6261  165.0379 C.3     1  UNL1        0.1302
      9 C         141.3555  140.2238  163.5931 C.3     1  UNL1        0.1186
     10 N         140.3451  139.2480  163.0672 N.am    1  UNL1       -0.2688
     11 C         140.3723  138.8457  161.6223 C.2     1  UNL1        0.2493
     12 O         139.3617  137.8699  161.0963 O.2     1  UNL1       -0.2699
     13 C         140.7892  141.1575  168.3391 C.ar    1  UNL1        0.1202
     14 C         140.2916  142.5430  168.6267 C.ar    1  UNL1        0.0225
     15 C         141.0627  143.4406  169.5487 C.ar    1  UNL1        0.0064
     16 C         142.3312  142.9526  170.1830 C.ar    1  UNL1        0.0575
     17 C         142.8288  141.5670  169.8953 C.ar    1  UNL1        0.2217
     18 O         144.0975  141.0790  170.5297 O.3     1  UNL1       -0.4919
     19 N         142.0579  140.6695  168.9734 N.ar    1  UNL1       -0.2087
     20 H         144.5791  141.6397  171.1057 H       1  UNL1        0.2937
     21 C         141.4099  139.4193  160.7035 C.ar    1  UNL1        0.0536
     22 C         141.1580  140.7251  160.0098 C.ar    1  UNL1        0.0045
     23 C         142.1958  141.2986  159.0909 C.ar    1  UNL1        0.0006
     24 C         143.4853  140.5663  158.8658 C.ar    1  UNL1        0.0060
     25 C         143.7372  139.2604  159.5596 C.ar    1  UNL1        0.0006
     26 C         142.6995  138.6869  160.4784 C.ar    1  UNL1        0.0045
     27 C         144.5231  141.1398  157.9470 C.ar    1  UNL1        0.0295
     28 C         145.0287  140.5079  156.6842 C.ar    1  UNL1        0.0070
     29 C         146.0556  141.4234  156.0865 C.ar    1  UNL1        0.0075
     30 C         146.1846  142.6213  156.9801 C.ar    1  UNL1        0.0354
     31 S         145.2375  142.4460  158.1300 S.2     1  UNL1       -0.0864
@<TRIPOS>BOND
     1     2     1    1
     2     2     3    1
     3     3     4   ar
     4     4     5   ar
     5     5     6   ar
     6     6    13    1
     7    13    14   ar
     8    14    15   ar
     9    15    16   ar
    10    16    17   ar
    11    17    18    1
    12    17    19   ar
    13     6     7   ar
    14     7     8    1
    15     8     9    1
    16     9    10    1
    17    10    11   am
    18    11    12    2
    19    11    21    1
    20    21    22   ar
    21    22    23   ar
    22    23    24   ar
    23    24    27    1
    24    27    28   ar
    25    28    29   ar
    26    29    30   ar
    27    30    31   ar
    28    24    25   ar
    29    25    26   ar
    30    10     2    1
    31    26    21   ar
    32     7     3   ar
    33    31    27   ar
    34    19    13   ar
    35    18    20    1
@<TRIPOS>MOLECULE
*****
 31 35 0 0 0
SMALL
GASTEIGER

@<TRIPOS>ATOM
      1 C         140.5038  145.4259  160.2563 C.3     1  UNL1        0.0298
      2 C         140.7501  143.9471  160.3059 C.3     1  UNL1        0.1343
      3 C         140.6757  143.1318  159.0490 C.ar    1  UNL1        0.1615
      4 N         140.3828  143.5054  157.6262 N.ar    1  UNL1       -0.1316
      5 N         140.4480  142.2575  156.7964 N.ar    1  UNL1       -0.1274
      6 C         140.7813  141.1126  157.7065 C.ar    1  UNL1        0.1841
      7 N         140.9220  141.6529  159.0987 N.ar    1  UNL1       -0.2944
      8 C         141.2426  140.9894  160.4052 C.3     1  UNL1        0.1302
      9 C         141.3170  141.8048  161.6620 C.3     1  UNL1        0.1186
     10 N         141.0707  143.2835  161.6124 N.am    1  UNL1       -0.2688
     11 C         141.1451  144.0988  162.8694 C.2     1  UNL1        0.2493
     12 O         140.8988  145.5777  162.8197 O.2     1  UNL1       -0.2699
     13 C         140.9450  139.6791  157.2963 C.ar    1  UNL1        0.1202
     14 C         142.3070  139.0507  157.2937 C.ar    1  UNL1        0.0225
     15 C         142.4708  137.6171  156.8835 C.ar    1  UNL1        0.0064
     16 C         141.2727  136.8121  156.4759 C.ar    1  UNL1        0.0575
     17 C         139.9106  137.4406  156.4785 C.ar    1  UNL1        0.2217
     18 O         138.7124  136.6355  156.0709 O.3     1  UNL1       -0.4919
     19 N         139.7468  138.8741  156.8887 N.ar    1  UNL1       -0.2087
     20 H         138.8148  135.7400  155.8147 H       1  UNL1        0.2937
     21 C         141.4657  143.4353  164.1759 C.ar    1  UNL1        0.0536
     22 C         140.3579  143.0231  165.0994 C.ar    1  UNL1        0.0045
     23 C         140.6786  142.3596  166.4060 C.ar    1  UNL1        0.0006
     24 C         142.1069  142.1083  166.7889 C.ar    1  UNL1        0.0060
     25 C         143.2147  142.5206  165.8653 C.ar    1  UNL1        0.0006
     26 C         142.8941  143.1841  164.5588 C.ar    1  UNL1        0.0045
     27 C         142.4277  141.4448  168.0953 C.ar    1  UNL1        0.0295
     28 C         143.2059  142.0517  169.2249 C.ar    1  UNL1        0.0070
     29 C         143.2856  141.0398  170.3293 C.ar    1  UNL1        0.0075
     30 C         142.5566  139.8074  169.8822 C.ar    1  UNL1        0.0354
     31 S         142.0264  140.0577  168.5016 S.2     1  UNL1       -0.0864
@<TRIPOS>BOND
     1     2     1    1
     2     2     3    1
     3     3     4   ar
     4     4     5   ar
     5     5     6   ar
     6     6    13    1
     7    13    14   ar
     8    14    15   ar
     9    15    16   ar
    10    16    17   ar
    11    17    18    1
    12    17    19   ar
    13     6     7   ar
    14     7     8    1
    15     8     9    1
    16     9    10    1
    17    10    11   am
    18    11    12    2
    19    11    21    1
    20    21    22   ar
    21    22    23   ar
    22    23    24   ar
    23    24    27    1
    24    27    28   ar
    25    28    29   ar
    26    29    30   ar
    27    30    31   ar
    28    24    25   ar
    29    25    26   ar
    30    10     2    1
    31    26    21   ar
    32     7     3   ar
    33    31    27   ar
    34    19    13   ar
    35    18    20    1
@<TRIPOS>MOLECULE
*****
 31 35 0 0 0
SMALL
GASTEIGER

@<TRIPOS>ATOM
      1 C         144.4255  141.7204  158.2062 C.3     1  UNL1        0.0298
      2 C         143.7591  140.3819  158.3268 C.3     1  UNL1        0.1343
      3 C         143.8938  139.3748  157.2233 C.ar    1  UNL1        0.1615
      4 N         144.6136  139.4174  155.9081 N.ar    1  UNL1       -0.1316
      5 N         144.3921  138.1053  155.2158 N.ar    1  UNL1       -0.1274
      6 C         143.5353  137.2518  156.1032 C.ar    1  UNL1        0.1841
      7 N         143.2273  138.0364  157.3439 N.ar    1  UNL1       -0.2944
      8 C         142.4261  137.7051  158.5680 C.3     1  UNL1        0.1302
      9 C         142.2914  138.7122  159.6714 C.3     1  UNL1        0.1186
     10 N         142.9578  140.0505  159.5509 N.am    1  UNL1       -0.2688
     11 C         142.8231  141.0577  160.6544 C.2     1  UNL1        0.2493
     12 O         143.4896  142.3961  160.5338 O.2     1  UNL1       -0.2699
     13 C         143.0685  135.8584  155.8026 C.ar    1  UNL1        0.1202
     14 C         142.4925  135.5345  154.4560 C.ar    1  UNL1        0.0225
     15 C         142.0256  134.1410  154.1553 C.ar    1  UNL1        0.0064
     16 C         142.1347  133.0715  155.2012 C.ar    1  UNL1        0.0575
     17 C         142.7108  133.3954  156.5479 C.ar    1  UNL1        0.2217
     18 O         142.8199  132.3257  157.5938 O.3     1  UNL1       -0.4919
     19 N         143.1776  134.7888  156.8486 N.ar    1  UNL1       -0.2087
     20 H         142.5283  131.4553  157.4060 H       1  UNL1        0.2937
     21 C         142.0219  140.7263  161.8785 C.ar    1  UNL1        0.0536
     22 C         140.5569  141.0450  161.9248 C.ar    1  UNL1        0.0045
     23 C         139.7557  140.7137  163.1490 C.ar    1  UNL1        0.0006
     24 C         140.4196  140.0637  164.3266 C.ar    1  UNL1        0.0060
     25 C         141.8847  139.7451  164.2801 C.ar    1  UNL1        0.0006
     26 C         142.6858  140.0764  163.0561 C.ar    1  UNL1        0.0045
     27 C         139.6185  139.7324  165.5507 C.ar    1  UNL1        0.0295
     28 C         138.3644  138.9104  165.5880 C.ar    1  UNL1        0.0070
     29 C         137.9018  138.8349  167.0129 C.ar    1  UNL1        0.0075
     30 C         138.8700  139.6102  167.8562 C.ar    1  UNL1        0.0354
     31 S         139.9310  140.1649  166.9526 S.2     1  UNL1       -0.0864
@<TRIPOS>BOND
     1     2     1    1
     2     2     3    1
     3     3     4   ar
     4     4     5   ar
     5     5     6   ar
     6     6    13    1
     7    13    14   ar
     8    14    15   ar
     9    15    16   ar
    10    16    17   ar
    11    17    18    1
    12    17    19   ar
    13     6     7   ar
    14     7     8    1
    15     8     9    1
    16     9    10    1
    17    10    11   am
    18    11    12    2
    19    11    21    1
    20    21    22   ar
    21    22    23   ar
    22    23    24   ar
    23    24    27    1
    24    27    28   ar
    25    28    29   ar
    26    29    30   ar
    27    30    31   ar
    28    24    25   ar
    29    25    26   ar
    30    10     2    1
    31    26    21   ar
    32     7     3   ar
    33    31    27   ar
    34    19    13   ar
    35    18    20    1
@<TRIPOS>MOLECULE
*****
 31 35 0 0 0
SMALL
GASTEIGER

@<TRIPOS>ATOM
      1 C         144.5358  143.8309  165.0090 C.3     1  UNL1        0.0298
      2 C         143.2112  143.1482  164.8370 C.3     1  UNL1        0.1343
      3 C         142.6494  142.3103  165.9470 C.ar    1  UNL1        0.1615
      4 N         143.1692  141.9758  167.3138 N.ar    1  UNL1       -0.1316
      5 N         142.1658  141.0865  167.9863 N.ar    1  UNL1       -0.1274
      6 C         141.0260  140.8713  167.0352 C.ar    1  UNL1        0.1841
      7 N         141.3249  141.6276  165.7749 N.ar    1  UNL1       -0.2944
      8 C         140.5621  141.7830  164.4927 C.3     1  UNL1        0.1302
      9 C         141.1239  142.6209  163.3826 C.3     1  UNL1        0.1186
     10 N         142.4483  143.3035  163.5547 N.am    1  UNL1       -0.2688
     11 C         143.0101  144.1415  162.4446 C.2     1  UNL1        0.2493
     12 O         144.3347  144.8242  162.6167 O.2     1  UNL1       -0.2699
     13 C         139.8022  140.0449  167.2984 C.ar    1  UNL1        0.1202
     14 C         139.1942  139.2323  166.1938 C.ar    1  UNL1        0.0225
     15 C         137.9703  138.4058  166.4569 C.ar    1  UNL1        0.0064
     16 C         137.3545  138.3919  167.8245 C.ar    1  UNL1        0.0575
     17 C         137.9625  139.2046  168.9291 C.ar    1  UNL1        0.2217
     18 O         137.3466  139.1906  170.2968 O.3     1  UNL1       -0.4919
     19 N         139.1863  140.0310  168.6661 N.ar    1  UNL1       -0.2087
     20 H         136.5821  138.6744  170.4611 H       1  UNL1        0.2937
     21 C         142.2474  144.2969  161.1624 C.ar    1  UNL1        0.0536
     22 C         141.0856  145.2430  161.0908 C.ar    1  UNL1        0.0045
     23 C         140.3228  145.3983  159.8085 C.ar    1  UNL1        0.0006
     24 C         140.7218  144.6075  158.5980 C.ar    1  UNL1        0.0060
     25 C         141.8837  143.6614  158.6697 C.ar    1  UNL1        0.0006
     26 C         142.6464  143.5060  159.9519 C.ar    1  UNL1        0.0045
     27 C         139.9591  144.7628  157.3158 C.ar    1  UNL1        0.0295
     28 C         139.8596  146.0143  156.4949 C.ar    1  UNL1        0.0070
     29 C         139.0010  145.7186  155.3011 C.ar    1  UNL1        0.0075
     30 C         138.5698  144.2843  155.3841 C.ar    1  UNL1        0.0354
     31 S         139.1620  143.6936  156.6292 S.2     1  UNL1       -0.0864
@<TRIPOS>BOND
     1     2     1    1
     2     2     3    1
     3     3     4   ar
     4     4     5   ar
     5     5     6   ar
     6     6    13    1
     7    13    14   ar
     8    14    15   ar
     9    15    16   ar
    10    16    17   ar
    11    17    18    1
    12    17    19   ar
    13     6     7   ar
    14     7     8    1
    15     8     9    1
    16     9    10    1
    17    10    11   am
    18    11    12    2
    19    11    21    1
    20    21    22   ar
    21    22    23   ar
    22    23    24   ar
    23    24    27    1
    24    27    28   ar
    25    28    29   ar
    26    29    30   ar
    27    30    31   ar
    28    24    25   ar
    29    25    26   ar
    30    10     2    1
    31    26    21   ar
    32     7     3   ar
    33    31    27   ar
    34    19    13   ar
    35    18    20    1
@<TRIPOS>MOLECULE
*****
 31 35 0 0 0
SMALL
GASTEIGER

@<TRIPOS>ATOM
      1 C         144.2628  138.4083  162.4152 C.3     1  UNL1        0.0298
      2 C         143.3403  139.3973  163.0640 C.3     1  UNL1        0.1343
      3 C         143.0992  139.3396  164.5434 C.ar    1  UNL1        0.1615
      4 N         143.6262  138.4275  165.6113 N.ar    1  UNL1       -0.1316
      5 N         143.0293  138.8528  166.9200 N.ar    1  UNL1       -0.1274
      6 C         142.1335  140.0277  166.6610 C.ar    1  UNL1        0.1841
      7 N         142.1768  140.3286  165.1921 N.ar    1  UNL1       -0.2944
      8 C         141.4953  141.3753  164.3615 C.3     1  UNL1        0.1302
      9 C         141.7363  141.4331  162.8821 C.3     1  UNL1        0.1186
     10 N         142.6588  140.4441  162.2334 N.am    1  UNL1       -0.2688
     11 C         142.8998  140.5019  160.7539 C.2     1  UNL1        0.2493
     12 O         143.8223  139.5128  160.1052 O.2     1  UNL1       -0.2699
     13 C         141.3348  140.7713  167.6902 C.ar    1  UNL1        0.1202
     14 C         141.5486  142.2430  167.8859 C.ar    1  UNL1        0.0225
     15 C         140.7498  142.9866  168.9151 C.ar    1  UNL1        0.0064
     16 C         139.7374  142.2584  169.7485 C.ar    1  UNL1        0.0575
     17 C         139.5236  140.7866  169.5527 C.ar    1  UNL1        0.2217
     18 O         138.5111  140.0585  170.3862 O.3     1  UNL1       -0.4919
     19 N         140.3223  140.0431  168.5236 N.ar    1  UNL1       -0.2087
     20 H         138.0122  140.5230  171.0290 H       1  UNL1        0.2937
     21 C         142.2184  141.5486  159.9233 C.ar    1  UNL1        0.0536
     22 C         140.8969  141.2515  159.2787 C.ar    1  UNL1        0.0045
     23 C         140.2155  142.2984  158.4481 C.ar    1  UNL1        0.0006
     24 C         140.8555  143.6421  158.2621 C.ar    1  UNL1        0.0060
     25 C         142.1770  143.9391  158.9067 C.ar    1  UNL1        0.0006
     26 C         142.8585  142.8924  159.7373 C.ar    1  UNL1        0.0045
     27 C         140.1741  144.6889  157.4315 C.ar    1  UNL1        0.0295
     28 C         140.2767  146.1728  157.6250 C.ar    1  UNL1        0.0070
     29 C         139.4365  146.8365  156.5746 C.ar    1  UNL1        0.0075
     30 C         138.8146  145.7628  155.7318 C.ar    1  UNL1        0.0354
     31 S         139.2705  144.4355  156.2613 S.2     1  UNL1       -0.0864
@<TRIPOS>BOND
     1     2     1    1
     2     2     3    1
     3     3     4   ar
     4     4     5   ar
     5     5     6   ar
     6     6    13    1
     7    13    14   ar
     8    14    15   ar
     9    15    16   ar
    10    16    17   ar
    11    17    18    1
    12    17    19   ar
    13     6     7   ar
    14     7     8    1
    15     8     9    1
    16     9    10    1
    17    10    11   am
    18    11    12    2
    19    11    21    1
    20    21    22   ar
    21    22    23   ar
    22    23    24   ar
    23    24    27    1
    24    27    28   ar
    25    28    29   ar
    26    29    30   ar
    27    30    31   ar
    28    24    25   ar
    29    25    26   ar
    30    10     2    1
    31    26    21   ar
    32     7     3   ar
    33    31    27   ar
    34    19    13   ar
    35    18    20    1
@<TRIPOS>MOLECULE
*****
 31 35 0 0 0
SMALL
GASTEIGER

@<TRIPOS>ATOM
      1 C         138.4533  142.7330  158.4403 C.3     1  UNL1        0.0298
      2 C         138.8614  141.7552  159.5021 C.3     1  UNL1        0.1343
      3 C         138.5893  142.0585  160.9457 C.ar    1  UNL1        0.1615
      4 N         137.9403  143.2308  161.6199 N.ar    1  UNL1       -0.1316
      5 N         137.9474  142.9775  163.0983 N.ar    1  UNL1       -0.1274
      6 C         138.6007  141.6486  163.3378 C.ar    1  UNL1        0.1841
      7 N         138.9974  141.0807  162.0074 N.ar    1  UNL1       -0.2944
      8 C         139.6776  139.7995  161.6255 C.3     1  UNL1        0.1302
      9 C         139.9496  139.4961  160.1819 C.3     1  UNL1        0.1186
     10 N         139.5416  140.4739  159.1203 N.am    1  UNL1       -0.2688
     11 C         139.8137  140.1705  157.6766 C.2     1  UNL1        0.2493
     12 O         139.4055  141.1483  156.6149 O.2     1  UNL1       -0.2699
     13 C         138.8189  141.0014  164.6733 C.ar    1  UNL1        0.1202
     14 C         138.1274  139.7120  165.0037 C.ar    1  UNL1        0.0225
     15 C         138.3456  139.0647  166.3392 C.ar    1  UNL1        0.0064
     16 C         139.2552  139.7068  167.3442 C.ar    1  UNL1        0.0575
     17 C         139.9467  140.9963  167.0137 C.ar    1  UNL1        0.2217
     18 O         140.8564  141.6384  168.0188 O.3     1  UNL1       -0.4919
     19 N         139.7286  141.6436  165.6783 N.ar    1  UNL1       -0.2087
     20 H         140.9927  141.2341  168.8530 H       1  UNL1        0.2937
     21 C         140.4938  138.8892  157.2948 C.ar    1  UNL1        0.0536
     22 C         139.7668  137.8723  156.4658 C.ar    1  UNL1        0.0045
     23 C         140.4470  136.5911  156.0839 C.ar    1  UNL1        0.0006
     24 C         141.8541  136.3268  156.5310 C.ar    1  UNL1        0.0060
     25 C         142.5812  137.3438  157.3601 C.ar    1  UNL1        0.0006
     26 C         141.9011  138.6250  157.7419 C.ar    1  UNL1        0.0045
     27 C         142.5344  135.0456  156.1493 C.ar    1  UNL1        0.0295
     28 C         142.3242  134.2810  154.8761 C.ar    1  UNL1        0.0070
     29 C         143.2043  133.0669  154.9137 C.ar    1  UNL1        0.0075
     30 C         143.9585  133.0812  156.2102 C.ar    1  UNL1        0.0354
     31 S         143.5445  134.3041  156.9738 S.2     1  UNL1       -0.0864
@<TRIPOS>BOND
     1     2     1    1
     2     2     3    1
     3     3     4   ar
     4     4     5   ar
     5     5     6   ar
     6     6    13    1
     7    13    14   ar
     8    14    15   ar
     9    15    16   ar
    10    16    17   ar
    11    17    18    1
    12    17    19   ar
    13     6     7   ar
    14     7     8    1
    15     8     9    1
    16     9    10    1
    17    10    11   am
    18    11    12    2
    19    11    21    1
    20    21    22   ar
    21    22    23   ar
    22    23    24   ar
    23    24    27    1
    24    27    28   ar
    25    28    29   ar
    26    29    30   ar
    27    30    31   ar
    28    24    25   ar
    29    25    26   ar
    30    10     2    1
    31    26    21   ar
    32     7     3   ar
    33    31    27   ar
    34    19    13   ar
    35    18    20    1
@<TRIPOS>MOLECULE
*****
 31 35 0 0 0
SMALL
GASTEIGER

@<TRIPOS>ATOM
      1 C         138.2243  137.9670  161.9173 C.3     1  UNL1        0.0298
      2 C         139.4285  138.8276  161.6733 C.3     1  UNL1        0.1343
      3 C         139.9631  138.9924  160.2816 C.ar    1  UNL1        0.1615
      4 N         139.5169  138.4349  158.9625 N.ar    1  UNL1       -0.1316
      5 N         140.4452  138.9509  157.9033 N.ar    1  UNL1       -0.1274
      6 C         141.4652  139.8273  158.5678 C.ar    1  UNL1        0.1841
      7 N         141.1672  139.8530  160.0377 N.ar    1  UNL1       -0.2944
      8 C         141.8368  140.5487  161.1856 C.3     1  UNL1        0.1302
      9 C         141.3022  140.3839  162.5773 C.3     1  UNL1        0.1186
     10 N         140.0981  139.5234  162.8212 N.am    1  UNL1       -0.2688
     11 C         139.5635  139.3586  164.2131 C.2     1  UNL1        0.2493
     12 O         138.3593  138.4980  164.4569 O.2     1  UNL1       -0.2699
     13 C         142.5863  140.5510  157.8827 C.ar    1  UNL1        0.1202
     14 C         142.5369  142.0430  157.7357 C.ar    1  UNL1        0.0225
     15 C         143.6580  142.7668  157.0506 C.ar    1  UNL1        0.0064
     16 C         144.8285  141.9985  156.5125 C.ar    1  UNL1        0.0575
     17 C         144.8780  140.5065  156.6596 C.ar    1  UNL1        0.2217
     18 O         146.0486  139.7384  156.1214 O.3     1  UNL1       -0.4919
     19 N         143.7569  139.7828  157.3446 N.ar    1  UNL1       -0.2087
     20 H         146.7489  140.1905  155.6935 H       1  UNL1        0.2937
     21 C         140.2330  140.0543  165.3609 C.ar    1  UNL1        0.0536
     22 C         139.7698  141.4163  165.7856 C.ar    1  UNL1        0.0045
     23 C         140.4394  142.1120  166.9336 C.ar    1  UNL1        0.0006
     24 C         141.5721  141.4458  167.6567 C.ar    1  UNL1        0.0060
     25 C         142.0353  140.0837  167.2320 C.ar    1  UNL1        0.0006
     26 C         141.3658  139.3880  166.0841 C.ar    1  UNL1        0.0045
     27 C         142.2417  142.1414  168.8046 C.ar    1  UNL1        0.0295
     28 C         143.7156  142.1666  169.0818 C.ar    1  UNL1        0.0070
     29 C         143.9397  142.9748  170.3254 C.ar    1  UNL1        0.0075
     30 C         142.6042  143.4492  170.8168 C.ar    1  UNL1        0.0354
     31 S         141.5548  142.9342  169.8769 S.2     1  UNL1       -0.0864
@<TRIPOS>BOND
     1     2     1    1
     2     2     3    1
     3     3     4   ar
     4     4     5   ar
     5     5     6   ar
     6     6    13    1
     7    13    14   ar
     8    14    15   ar
     9    15    16   ar
    10    16    17   ar
    11    17    18    1
    12    17    19   ar
    13     6     7   ar
    14     7     8    1
    15     8     9    1
    16     9    10    1
    17    10    11   am
    18    11    12    2
    19    11    21    1
    20    21    22   ar
    21    22    23   ar
    22    23    24   ar
    23    24    27    1
    24    27    28   ar
    25    28    29   ar
    26    29    30   ar
    27    30    31   ar
    28    24    25   ar
    29    25    26   ar
    30    10     2    1
    31    26    21   ar
    32     7     3   ar
    33    31    27   ar
    34    19    13   ar
    35    18    20    1
@<TRIPOS>MOLECULE
*****
 31 35 0 0 0
SMALL
GASTEIGER

@<TRIPOS>ATOM
      1 C         137.8930  138.4565  161.6089 C.3     1  UNL1        0.0298
      2 C         138.7442  139.6766  161.4164 C.3     1  UNL1        0.1343
      3 C         138.8831  140.2868  160.0532 C.ar    1  UNL1        0.1615
      4 N         138.3052  139.9101  158.7213 N.ar    1  UNL1       -0.1316
      5 N         138.7992  140.8972  157.7057 N.ar    1  UNL1       -0.1274
      6 C         139.6825  141.8841  158.4100 C.ar    1  UNL1        0.1841
      7 N         139.7344  141.5068  159.8608 N.ar    1  UNL1       -0.2944
      8 C         140.4467  142.1165  161.0316 C.3     1  UNL1        0.1302
      9 C         140.3078  141.5063  162.3948 C.3     1  UNL1        0.1186
     10 N         139.4566  140.2864  162.5872 N.am    1  UNL1       -0.2688
     11 C         139.3177  139.6761  163.9505 C.2     1  UNL1        0.2493
     12 O         138.4665  138.4561  164.1428 O.2     1  UNL1       -0.2699
     13 C         140.3898  143.0444  157.7749 C.ar    1  UNL1        0.1202
     14 C         141.7300  142.8449  157.1315 C.ar    1  UNL1        0.0225
     15 C         142.4374  144.0052  156.4964 C.ar    1  UNL1        0.0064
     16 C         141.8044  145.3650  156.5046 C.ar    1  UNL1        0.0575
     17 C         140.4641  145.5646  157.1479 C.ar    1  UNL1        0.2217
     18 O         139.8312  146.9245  157.1561 O.3     1  UNL1       -0.4919
     19 N         139.7568  144.4043  157.7831 N.ar    1  UNL1       -0.2087
     20 H         140.2730  147.6493  156.7593 H       1  UNL1        0.2937
     21 C         140.0301  140.2858  165.1213 C.ar    1  UNL1        0.0536
     22 C         141.2420  139.6134  165.6949 C.ar    1  UNL1        0.0045
     23 C         141.9543  140.2232  166.8658 C.ar    1  UNL1        0.0006
     24 C         141.4548  141.5052  167.4628 C.ar    1  UNL1        0.0060
     25 C         140.2428  142.1777  166.8891 C.ar    1  UNL1        0.0006
     26 C         139.5305  141.5680  165.7183 C.ar    1  UNL1        0.0045
     27 C         142.1671  142.1151  168.6336 C.ar    1  UNL1        0.0295
     28 C         143.6524  142.1564  168.8382 C.ar    1  UNL1        0.0070
     29 C         143.9223  142.8575  170.1365 C.ar    1  UNL1        0.0075
     30 C         142.6036  143.2496  170.7343 C.ar    1  UNL1        0.0354
     31 S         141.5188  142.7907  169.8055 S.2     1  UNL1       -0.0864
@<TRIPOS>BOND
     1     2     1    1
     2     2     3    1
     3     3     4   ar
     4     4     5   ar
     5     5     6   ar
     6     6    13    1
     7    13    14   ar
     8    14    15   ar
     9    15    16   ar
    10    16    17   ar
    11    17    18    1
    12    17    19   ar
    13     6     7   ar
    14     7     8    1
    15     8     9    1
    16     9    10    1
    17    10    11   am
    18    11    12    2
    19    11    21    1
    20    21    22   ar
    21    22    23   ar
    22    23    24   ar
    23    24    27    1
    24    27    28   ar
    25    28    29   ar
    26    29    30   ar
    27    30    31   ar
    28    24    25   ar
    29    25    26   ar
    30    10     2    1
    31    26    21   ar
    32     7     3   ar
    33    31    27   ar
    34    19    13   ar
    35    18    20    1
