@<TRIPOS>MOLECULE
*****
 33 36 0 0 0
SMALL
GASTEIGER

@<TRIPOS>ATOM
      1 N         137.9084  138.5089  166.5894 N.pl3   1  UNL1       -0.3410
      2 C         138.6268  139.6051  165.8598 C.ar    1  UNL1        0.1508
      3 N         138.3859  139.8137  164.3940 N.ar    1  UNL1       -0.2128
      4 C         139.1042  140.9099  163.6645 C.ar    1  UNL1        0.1525
      5 C         140.0635  141.7975  164.4007 C.ar    1  UNL1        0.1337
      6 N         140.3045  141.5889  165.8664 N.ar    1  UNL1       -0.2316
      7 C         139.5861  140.4926  166.5960 C.ar    1  UNL1        0.1420
      8 H         137.2788  137.9264  166.1062 H       1  UNL1        0.1438
      9 H         138.0665  138.3719  167.5514 H       1  UNL1        0.1438
     10 N         138.8633  141.1186  162.1987 N.pl3   1  UNL1       -0.2920
     11 C         139.3055  142.3914  161.5397 C.3     1  UNL1        0.0922
     12 C         139.0646  142.6001  160.0740 C.3     1  UNL1        0.0228
     13 C         138.3815  141.5358  159.2673 C.3     1  UNL1        0.0163
     14 C         137.7143  140.5668  158.3367 C.3     1  UNL1        0.0014
     15 C         137.6859  141.1822  156.9690 C.3     1  UNL1        0.0014
     16 C         138.3356  142.5316  157.0543 C.3     1  UNL1        0.0155
     17 C         138.7655  142.7501  158.4746 C.3     1  UNL1        0.0508
     18 N         139.4578  143.9689  159.0087 N.3     1  UNL1       -0.3222
     19 C         137.9393  140.2630  159.9262 C.3     1  UNL1        0.0228
     20 C         138.1803  140.0544  161.3920 C.3     1  UNL1        0.0922
     21 H         139.6329  143.8506  160.0066 H       1  UNL1        0.1188
     22 H         138.8670  144.7873  158.8619 H       1  UNL1        0.1188
     23 S         139.8270  140.2840  168.0617 S.3     1  UNL1       -0.0638
     24 C         140.7817  141.1754  168.7992 C.ar    1  UNL1        0.0526
     25 C         140.2871  142.4401  169.4363 C.ar    1  UNL1        0.0096
     26 C         141.2418  143.3316  170.1738 C.ar    1  UNL1        0.0212
     27 C         142.6911  142.9583  170.2742 C.ar    1  UNL1        0.0988
     28 N         143.1857  141.6936  169.6372 N.ar    1  UNL1       -0.2394
     29 C         142.2310  140.8022  168.8997 C.ar    1  UNL1        0.1586
     30 C         142.7257  139.5374  168.2627 C.3     1  UNL1        0.4353
     31 F         143.2203  138.2727  167.6256 F       1  UNL1       -0.1644
     32 F         142.4591  138.7915  169.5364 F       1  UNL1       -0.1644
     33 F         142.9923  140.2833  166.9889 F       1  UNL1       -0.1644
@<TRIPOS>BOND
     1     1     2    1
     2     2     3   ar
     3     3     4   ar
     4     4    10    1
     5    10    11    1
     6    11    12    1
     7    12    13    1
     8    13    14    1
     9    14    15    1
    10    15    16    1
    11    16    17    1
    12    17    18    1
    13    13    19    1
    14    19    20    1
    15     4     5   ar
    16     5     6   ar
    17     6     7   ar
    18     7    23    1
    19    23    24    1
    20    24    25   ar
    21    25    26   ar
    22    26    27   ar
    23    27    28   ar
    24    28    29   ar
    25    29    30    1
    26    30    31    1
    27    30    32    1
    28    30    33    1
    29     7     2   ar
    30    29    24   ar
    31    20    10    1
    32    17    13    1
    33     1     8    1
    34     1     9    1
    35    18    21    1
    36    18    22    1
@<TRIPOS>MOLECULE
*****
 33 36 0 0 0
SMALL
GASTEIGER

@<TRIPOS>ATOM
      1 N         144.0944  139.4147  164.5752 N.pl3   1  UNL1       -0.3410
      2 C         143.2118  140.6221  164.4615 C.ar    1  UNL1        0.1508
      3 N         143.0439  141.3064  163.1372 N.ar    1  UNL1       -0.2128
      4 C         142.1612  142.5139  163.0235 C.ar    1  UNL1        0.1525
      5 C         141.4465  143.0371  164.2340 C.ar    1  UNL1        0.1337
      6 N         141.6144  142.3529  165.5582 N.ar    1  UNL1       -0.2316
      7 C         142.4970  141.1454  165.6720 C.ar    1  UNL1        0.1420
      8 H         144.5635  139.0712  163.7807 H       1  UNL1        0.1438
      9 H         144.2046  138.9656  165.4444 H       1  UNL1        0.1438
     10 N         141.9933  143.1981  161.6992 N.pl3   1  UNL1       -0.2920
     11 C         142.9511  142.9127  160.5807 C.3     1  UNL1        0.0922
     12 C         142.7832  143.5969  159.2565 C.3     1  UNL1        0.0228
     13 C         141.6575  144.5667  159.0508 C.3     1  UNL1        0.0163
     14 C         140.5856  145.5552  158.6988 C.3     1  UNL1        0.0014
     15 C         140.7976  145.9820  157.2765 C.3     1  UNL1        0.0014
     16 C         142.0006  145.2573  156.7495 C.3     1  UNL1        0.0155
     17 C         142.5320  144.3826  157.8460 C.3     1  UNL1        0.0508
     18 N         143.7279  143.4819  157.7541 N.3     1  UNL1       -0.3222
     19 C         140.6997  144.8521  160.1693 C.3     1  UNL1        0.0228
     20 C         140.8676  144.1679  161.4935 C.3     1  UNL1        0.0922
     21 H         143.8630  143.0041  158.6451 H       1  UNL1        0.1188
     22 H         144.5557  144.0369  157.5369 H       1  UNL1        0.1188
     23 S         142.6649  140.4612  166.9963 S.3     1  UNL1       -0.0638
     24 C         141.5690  140.5265  168.0185 C.ar    1  UNL1        0.0526
     25 C         140.2171  139.9567  167.7062 C.ar    1  UNL1        0.0096
     26 C         139.1213  140.0220  168.7284 C.ar    1  UNL1        0.0212
     27 C         139.3774  140.6572  170.0629 C.ar    1  UNL1        0.0988
     28 N         140.7293  141.2270  170.3752 N.ar    1  UNL1       -0.2394
     29 C         141.8251  141.1617  169.3530 C.ar    1  UNL1        0.1586
     30 C         143.1771  141.7316  169.6653 C.3     1  UNL1        0.4353
     31 F         144.5290  142.3015  169.9776 F       1  UNL1       -0.1644
     32 F         143.5656  140.4450  170.3314 F       1  UNL1       -0.1644
     33 F         142.7886  143.0181  168.9992 F       1  UNL1       -0.1644
@<TRIPOS>BOND
     1     1     2    1
     2     2     3   ar
     3     3     4   ar
     4     4    10    1
     5    10    11    1
     6    11    12    1
     7    12    13    1
     8    13    14    1
     9    14    15    1
    10    15    16    1
    11    16    17    1
    12    17    18    1
    13    13    19    1
    14    19    20    1
    15     4     5   ar
    16     5     6   ar
    17     6     7   ar
    18     7    23    1
    19    23    24    1
    20    24    25   ar
    21    25    26   ar
    22    26    27   ar
    23    27    28   ar
    24    28    29   ar
    25    29    30    1
    26    30    31    1
    27    30    32    1
    28    30    33    1
    29     7     2   ar
    30    29    24   ar
    31    20    10    1
    32    17    13    1
    33     1     8    1
    34     1     9    1
    35    18    21    1
    36    18    22    1
@<TRIPOS>MOLECULE
*****
 33 36 0 0 0
SMALL
GASTEIGER

@<TRIPOS>ATOM
      1 N         137.6903  143.8474  162.1562 N.pl3   1  UNL1       -0.3410
      2 C         138.8483  142.9242  162.3942 C.ar    1  UNL1        0.1508
      3 N         139.1880  142.4916  163.7898 N.ar    1  UNL1       -0.2128
      4 C         140.3460  141.5683  164.0278 C.ar    1  UNL1        0.1525
      5 C         141.1643  141.0777  162.8704 C.ar    1  UNL1        0.1337
      6 N         140.8247  141.5103  161.4749 N.ar    1  UNL1       -0.2316
      7 C         139.6666  142.4336  161.2368 C.ar    1  UNL1        0.1420
      8 H         137.1532  144.1694  162.9158 H       1  UNL1        0.1438
      9 H         137.4674  144.1314  161.2403 H       1  UNL1        0.1438
     10 N         140.6857  141.1357  165.4234 N.pl3   1  UNL1       -0.2920
     11 C         139.5904  140.8154  166.3969 C.3     1  UNL1        0.0922
     12 C         139.9302  140.3828  167.7923 C.3     1  UNL1        0.0228
     13 C         141.3652  140.2704  168.2143 C.3     1  UNL1        0.0163
     14 C         142.7468  140.1132  168.7770 C.3     1  UNL1        0.0014
     15 C         142.6184  139.6646  170.2026 C.3     1  UNL1        0.0014
     16 C         141.1575  139.5446  170.5210 C.3     1  UNL1        0.0155
     17 C         140.3830  139.9190  169.2923 C.3     1  UNL1        0.0508
     18 N         138.8886  139.9385  169.1638 N.3     1  UNL1       -0.3222
     19 C         142.4605  140.5907  167.2408 C.3     1  UNL1        0.0228
     20 C         142.1207  141.0233  165.8454 C.3     1  UNL1        0.0922
     21 H         138.6322  140.2305  168.2207 H       1  UNL1        0.1188
     22 H         138.4978  140.5938  169.8407 H       1  UNL1        0.1188
     23 S         139.3270  142.8662  159.8413 S.3     1  UNL1       -0.0638
     24 C         140.4076  143.3579  158.9245 C.ar    1  UNL1        0.0526
     25 C         140.7584  142.5776  157.6924 C.ar    1  UNL1        0.0096
     26 C         141.8391  143.0693  156.7757 C.ar    1  UNL1        0.0212
     27 C         142.5689  144.3412  157.0910 C.ar    1  UNL1        0.0988
     28 N         142.2181  145.1215  158.3231 N.ar    1  UNL1       -0.2394
     29 C         141.1375  144.6298  159.2399 C.ar    1  UNL1        0.1586
     30 C         140.7867  145.4101  160.4720 C.3     1  UNL1        0.4353
     31 F         140.4360  146.1904  161.7041 F       1  UNL1       -0.1644
     32 F         139.6967  146.1118  159.7174 F       1  UNL1       -0.1644
     33 F         141.8767  144.7084  161.2266 F       1  UNL1       -0.1644
@<TRIPOS>BOND
     1     1     2    1
     2     2     3   ar
     3     3     4   ar
     4     4    10    1
     5    10    11    1
     6    11    12    1
     7    12    13    1
     8    13    14    1
     9    14    15    1
    10    15    16    1
    11    16    17    1
    12    17    18    1
    13    13    19    1
    14    19    20    1
    15     4     5   ar
    16     5     6   ar
    17     6     7   ar
    18     7    23    1
    19    23    24    1
    20    24    25   ar
    21    25    26   ar
    22    26    27   ar
    23    27    28   ar
    24    28    29   ar
    25    29    30    1
    26    30    31    1
    27    30    32    1
    28    30    33    1
    29     7     2   ar
    30    29    24   ar
    31    20    10    1
    32    17    13    1
    33     1     8    1
    34     1     9    1
    35    18    21    1
    36    18    22    1
@<TRIPOS>MOLECULE
*****
 33 36 0 0 0
SMALL
GASTEIGER

@<TRIPOS>ATOM
      1 N         140.4413  146.3278  162.4993 N.pl3   1  UNL1       -0.3410
      2 C         140.6726  145.1431  161.6089 C.ar    1  UNL1        0.1508
      3 N         139.8785  144.9880  160.3457 N.ar    1  UNL1       -0.2128
      4 C         140.1097  143.8033  159.4552 C.ar    1  UNL1        0.1525
      5 C         141.1350  142.7737  159.8278 C.ar    1  UNL1        0.1337
      6 N         141.9291  142.9289  161.0908 N.ar    1  UNL1       -0.2316
      7 C         141.6979  144.1136  161.9814 C.ar    1  UNL1        0.1420
      8 H         139.7684  147.0035  162.2548 H       1  UNL1        0.1438
      9 H         140.9625  146.4297  163.3283 H       1  UNL1        0.1438
     10 N         139.3156  143.6481  158.1921 N.pl3   1  UNL1       -0.2920
     11 C         138.1906  142.6580  158.1303 C.3     1  UNL1        0.0922
     12 C         137.3966  142.5028  156.8673 C.3     1  UNL1        0.0228
     13 C         137.7276  143.3378  155.6659 C.3     1  UNL1        0.0163
     14 C         137.9410  144.0991  154.3912 C.3     1  UNL1        0.0014
     15 C         136.9260  143.6259  153.3932 C.3     1  UNL1        0.0014
     16 C         136.0853  142.5721  154.0511 C.3     1  UNL1        0.0155
     17 C         136.5807  142.3941  155.4557 C.3     1  UNL1        0.0508
     18 N         136.0266  141.4399  156.4718 N.3     1  UNL1       -0.3222
     19 C         138.8526  144.3280  155.7277 C.3     1  UNL1        0.0228
     20 C         139.6466  144.4831  156.9908 C.3     1  UNL1        0.0922
     21 H         136.5517  141.5270  157.3419 H       1  UNL1        0.1188
     22 H         136.1061  140.4855  156.1208 H       1  UNL1        0.1188
     23 S         142.4919  144.2687  163.2445 S.3     1  UNL1       -0.0638
     24 C         142.0517  143.5716  164.4976 C.ar    1  UNL1        0.0526
     25 C         140.6476  143.7421  164.9969 C.ar    1  UNL1        0.0096
     26 C         140.2073  143.0450  166.2500 C.ar    1  UNL1        0.0212
     27 C         141.1712  142.1775  167.0038 C.ar    1  UNL1        0.0988
     28 N         142.5753  142.0070  166.5044 N.ar    1  UNL1       -0.2394
     29 C         143.0155  142.7041  165.2513 C.ar    1  UNL1        0.1586
     30 C         144.4197  142.5335  164.7520 C.3     1  UNL1        0.4353
     31 F         145.8239  142.3630  164.2528 F       1  UNL1       -0.1644
     32 F         143.9805  141.3694  163.9143 F       1  UNL1       -0.1644
     33 F         144.8589  143.6977  165.5897 F       1  UNL1       -0.1644
@<TRIPOS>BOND
     1     1     2    1
     2     2     3   ar
     3     3     4   ar
     4     4    10    1
     5    10    11    1
     6    11    12    1
     7    12    13    1
     8    13    14    1
     9    14    15    1
    10    15    16    1
    11    16    17    1
    12    17    18    1
    13    13    19    1
    14    19    20    1
    15     4     5   ar
    16     5     6   ar
    17     6     7   ar
    18     7    23    1
    19    23    24    1
    20    24    25   ar
    21    25    26   ar
    22    26    27   ar
    23    27    28   ar
    24    28    29   ar
    25    29    30    1
    26    30    31    1
    27    30    32    1
    28    30    33    1
    29     7     2   ar
    30    29    24   ar
    31    20    10    1
    32    17    13    1
    33     1     8    1
    34     1     9    1
    35    18    21    1
    36    18    22    1
@<TRIPOS>MOLECULE
*****
 33 36 0 0 0
SMALL
GASTEIGER

@<TRIPOS>ATOM
      1 N         144.6583  138.6762  161.3986 N.pl3   1  UNL1       -0.3410
      2 C         143.2549  138.5114  161.9019 C.ar    1  UNL1        0.1508
      3 N         142.9172  138.8799  163.3163 N.ar    1  UNL1       -0.2128
      4 C         141.5139  138.7152  163.8196 C.ar    1  UNL1        0.1525
      5 C         140.4481  138.1819  162.9086 C.ar    1  UNL1        0.1337
      6 N         140.7858  137.8133  161.4944 N.ar    1  UNL1       -0.2316
      7 C         142.1892  137.9781  160.9910 C.ar    1  UNL1        0.1420
      8 H         145.3578  139.0262  161.9965 H       1  UNL1        0.1438
      9 H         144.8799  138.4343  160.4704 H       1  UNL1        0.1438
     10 N         141.1762  139.0837  165.2339 N.pl3   1  UNL1       -0.2920
     11 C         142.2642  139.1933  166.2606 C.3     1  UNL1        0.0922
     12 C         141.9265  139.5619  167.6748 C.3     1  UNL1        0.0228
     13 C         140.5007  139.8208  168.0623 C.3     1  UNL1        0.0163
     14 C         139.1280  140.1072  168.5951 C.3     1  UNL1        0.0014
     15 C         139.2553  140.4311  170.0542 C.3     1  UNL1        0.0014
     16 C         140.7067  140.3449  170.4232 C.3     1  UNL1        0.0155
     17 C         141.4764  139.9677  169.1922 C.3     1  UNL1        0.0508
     18 N         142.9610  139.7718  169.1061 N.3     1  UNL1       -0.3222
     19 C         139.4127  139.7112  167.0356 C.3     1  UNL1        0.0228
     20 C         139.7504  139.3427  165.6214 C.3     1  UNL1        0.0922
     21 H         143.2159  139.5198  168.1512 H       1  UNL1        0.1188
     22 H         143.2429  139.0253  169.7415 H       1  UNL1        0.1188
     23 S         142.5268  137.6095  159.5768 S.3     1  UNL1       -0.0638
     24 C         142.3946  138.6286  158.4841 C.ar    1  UNL1        0.0526
     25 C         142.4632  140.0911  158.8103 C.ar    1  UNL1        0.0096
     26 C         142.3309  141.1103  157.7177 C.ar    1  UNL1        0.0212
     27 C         142.1301  140.6669  156.2988 C.ar    1  UNL1        0.0988
     28 N         142.0615  139.2045  155.9727 N.ar    1  UNL1       -0.2394
     29 C         142.1938  138.1853  157.0653 C.ar    1  UNL1        0.1586
     30 C         142.1252  136.7228  156.7391 C.3     1  UNL1        0.4353
     31 F         142.0566  135.2603  156.4129 F       1  UNL1       -0.1644
     32 F         143.6204  136.6774  156.6281 F       1  UNL1       -0.1644
     33 F         140.6300  136.7682  156.8501 F       1  UNL1       -0.1644
@<TRIPOS>BOND
     1     1     2    1
     2     2     3   ar
     3     3     4   ar
     4     4    10    1
     5    10    11    1
     6    11    12    1
     7    12    13    1
     8    13    14    1
     9    14    15    1
    10    15    16    1
    11    16    17    1
    12    17    18    1
    13    13    19    1
    14    19    20    1
    15     4     5   ar
    16     5     6   ar
    17     6     7   ar
    18     7    23    1
    19    23    24    1
    20    24    25   ar
    21    25    26   ar
    22    26    27   ar
    23    27    28   ar
    24    28    29   ar
    25    29    30    1
    26    30    31    1
    27    30    32    1
    28    30    33    1
    29     7     2   ar
    30    29    24   ar
    31    20    10    1
    32    17    13    1
    33     1     8    1
    34     1     9    1
    35    18    21    1
    36    18    22    1
@<TRIPOS>MOLECULE
*****
 33 36 0 0 0
SMALL
GASTEIGER

@<TRIPOS>ATOM
      1 N         144.2089  137.7229  166.7832 N.pl3   1  UNL1       -0.3410
      2 C         143.5832  138.9135  166.1191 C.ar    1  UNL1        0.1508
      3 N         143.8356  139.1799  164.6647 N.ar    1  UNL1       -0.2128
      4 C         143.2099  140.3705  164.0006 C.ar    1  UNL1        0.1525
      5 C         142.3317  141.2947  164.7910 C.ar    1  UNL1        0.1337
      6 N         142.0793  141.0284  166.2454 N.ar    1  UNL1       -0.2316
      7 C         142.7050  139.8377  166.9095 C.ar    1  UNL1        0.1420
      8 H         144.7852  137.1163  166.2644 H       1  UNL1        0.1438
      9 H         144.0432  137.5481  167.7378 H       1  UNL1        0.1438
     10 N         143.4623  140.6369  162.5462 N.pl3   1  UNL1       -0.2920
     11 C         143.2884  139.5371  161.5411 C.3     1  UNL1        0.0922
     12 C         143.5408  139.8035  160.0867 C.3     1  UNL1        0.0228
     13 C         143.9671  141.1697  159.6374 C.3     1  UNL1        0.0163
     14 C         144.3959  142.4781  159.0422 C.3     1  UNL1        0.0014
     15 C         144.5288  142.2915  157.5597 C.3     1  UNL1        0.0014
     16 C         144.1823  140.8678  157.2388 C.3     1  UNL1        0.0155
     17 C         143.8351  140.1745  158.5228 C.3     1  UNL1        0.0508
     18 N         143.4275  138.7382  158.6671 N.3     1  UNL1       -0.3222
     19 C         144.1410  142.2694  160.6425 C.3     1  UNL1        0.0228
     20 C         143.8886  142.0030  162.0969 C.3     1  UNL1        0.0922
     21 H         143.2499  138.5323  159.6502 H       1  UNL1        0.1188
     22 H         144.1758  138.1362  158.3235 H       1  UNL1        0.1188
     23 S         142.4526  139.5714  168.3639 S.3     1  UNL1       -0.0638
     24 C         141.4727  140.4169  169.1222 C.ar    1  UNL1        0.0526
     25 C         140.0236  140.0315  169.1629 C.ar    1  UNL1        0.0096
     26 C         139.0437  140.8770  169.9211 C.ar    1  UNL1        0.0212
     27 C         139.5129  142.1078  170.6387 C.ar    1  UNL1        0.0988
     28 N         140.9619  142.4932  170.5980 N.ar    1  UNL1       -0.2394
     29 C         141.9418  141.6477  169.8397 C.ar    1  UNL1        0.1586
     30 C         143.3910  142.0331  169.7991 C.3     1  UNL1        0.4353
     31 F         144.8400  142.4184  169.7584 F       1  UNL1       -0.1644
     32 F         143.1120  142.9612  168.6542 F       1  UNL1       -0.1644
     33 F         143.6699  141.1050  170.9439 F       1  UNL1       -0.1644
@<TRIPOS>BOND
     1     1     2    1
     2     2     3   ar
     3     3     4   ar
     4     4    10    1
     5    10    11    1
     6    11    12    1
     7    12    13    1
     8    13    14    1
     9    14    15    1
    10    15    16    1
    11    16    17    1
    12    17    18    1
    13    13    19    1
    14    19    20    1
    15     4     5   ar
    16     5     6   ar
    17     6     7   ar
    18     7    23    1
    19    23    24    1
    20    24    25   ar
    21    25    26   ar
    22    26    27   ar
    23    27    28   ar
    24    28    29   ar
    25    29    30    1
    26    30    31    1
    27    30    32    1
    28    30    33    1
    29     7     2   ar
    30    29    24   ar
    31    20    10    1
    32    17    13    1
    33     1     8    1
    34     1     9    1
    35    18    21    1
    36    18    22    1
@<TRIPOS>MOLECULE
*****
 33 36 0 0 0
SMALL
GASTEIGER

@<TRIPOS>ATOM
      1 N         137.9737  140.2959  165.1036 N.pl3   1  UNL1       -0.3410
      2 C         139.0502  141.2672  164.7194 C.ar    1  UNL1        0.1508
      3 N         139.0924  141.8286  163.3290 N.ar    1  UNL1       -0.2128
      4 C         140.1688  142.7999  162.9447 C.ar    1  UNL1        0.1525
      5 C         141.2032  143.2099  163.9508 C.ar    1  UNL1        0.1337
      6 N         141.1610  142.6485  165.3411 N.ar    1  UNL1       -0.2316
      7 C         140.0845  141.6771  165.7254 C.ar    1  UNL1        0.1420
      8 H         137.2949  140.0268  164.4433 H       1  UNL1        0.1438
      9 H         137.9460  139.9274  166.0162 H       1  UNL1        0.1438
     10 N         140.2110  143.3614  161.5543 N.pl3   1  UNL1       -0.2920
     11 C         139.3962  142.7292  160.4652 C.3     1  UNL1        0.0922
     12 C         139.4384  143.2906  159.0749 C.3     1  UNL1        0.0228
     13 C         140.2955  144.4843  158.7738 C.3     1  UNL1        0.0163
     14 C         141.1011  145.6672  158.3247 C.3     1  UNL1        0.0014
     15 C         140.8430  145.8754  156.8617 C.3     1  UNL1        0.0014
     16 C         139.8778  144.8212  156.4067 C.3     1  UNL1        0.0155
     17 C         139.5394  143.9614  157.5884 C.3     1  UNL1        0.0508
     18 N         138.6084  142.7854  157.5853 N.3     1  UNL1       -0.3222
     19 C         141.1102  145.1165  159.8629 C.3     1  UNL1        0.0228
     20 C         141.0680  144.5551  161.2532 C.3     1  UNL1        0.0922
     21 H         138.5629  142.3853  158.5225 H       1  UNL1        0.1188
     22 H         138.9516  142.0817  156.9316 H       1  UNL1        0.1188
     23 S         140.0424  141.1157  167.1157 S.3     1  UNL1       -0.0638
     24 C         140.8950  141.7169  168.1935 C.ar    1  UNL1        0.0526
     25 C         140.4437  142.9602  168.9009 C.ar    1  UNL1        0.0096
     26 C         141.2964  143.5613  169.9786 C.ar    1  UNL1        0.0212
     27 C         142.6004  142.9192  170.3490 C.ar    1  UNL1        0.0988
     28 N         143.0517  141.6759  169.6416 N.ar    1  UNL1       -0.2394
     29 C         142.1990  141.0748  168.5638 C.ar    1  UNL1        0.1586
     30 C         142.6504  139.8314  167.8564 C.3     1  UNL1        0.4353
     31 F         143.1018  138.5881  167.1491 F       1  UNL1       -0.1644
     32 F         143.2251  140.6682  166.7521 F       1  UNL1       -0.1644
     33 F         142.0758  138.9946  168.9607 F       1  UNL1       -0.1644
@<TRIPOS>BOND
     1     1     2    1
     2     2     3   ar
     3     3     4   ar
     4     4    10    1
     5    10    11    1
     6    11    12    1
     7    12    13    1
     8    13    14    1
     9    14    15    1
    10    15    16    1
    11    16    17    1
    12    17    18    1
    13    13    19    1
    14    19    20    1
    15     4     5   ar
    16     5     6   ar
    17     6     7   ar
    18     7    23    1
    19    23    24    1
    20    24    25   ar
    21    25    26   ar
    22    26    27   ar
    23    27    28   ar
    24    28    29   ar
    25    29    30    1
    26    30    31    1
    27    30    32    1
    28    30    33    1
    29     7     2   ar
    30    29    24   ar
    31    20    10    1
    32    17    13    1
    33     1     8    1
    34     1     9    1
    35    18    21    1
    36    18    22    1
@<TRIPOS>MOLECULE
*****
 33 36 0 0 0
SMALL
GASTEIGER

@<TRIPOS>ATOM
      1 N         138.3340  145.1417  162.4809 N.pl3   1  UNL1       -0.3410
      2 C         139.5716  144.3328  162.7339 C.ar    1  UNL1        0.1508
      3 N         139.7720  143.6638  164.0615 N.ar    1  UNL1       -0.2128
      4 C         141.0096  142.8549  164.3144 C.ar    1  UNL1        0.1525
      5 C         142.0467  142.7148  163.2398 C.ar    1  UNL1        0.1337
      6 N         141.8463  143.3837  161.9123 N.ar    1  UNL1       -0.2316
      7 C         140.6087  144.1927  161.6593 C.ar    1  UNL1        0.1420
      8 H         137.6533  145.2336  163.1862 H       1  UNL1        0.1438
      9 H         138.2024  145.5808  161.6096 H       1  UNL1        0.1438
     10 N         141.2101  142.1860  165.6420 N.pl3   1  UNL1       -0.2920
     11 C         140.0906  141.4063  166.2656 C.3     1  UNL1        0.0922
     12 C         140.2911  140.7374  167.5931 C.3     1  UNL1        0.0228
     13 C         141.6111  140.8482  168.2970 C.3     1  UNL1        0.0163
     14 C         142.8683  140.8709  169.1148 C.3     1  UNL1        0.0014
     15 C         142.6238  140.0758  170.3631 C.3     1  UNL1        0.0014
     16 C         141.2154  139.5617  170.3168 C.3     1  UNL1        0.0155
     17 C         140.5895  140.0390  169.0399 C.3     1  UNL1        0.0508
     18 N         139.1881  139.7568  168.5856 N.3     1  UNL1       -0.3222
     19 C         142.7305  141.6278  167.6734 C.3     1  UNL1        0.0228
     20 C         142.5300  142.2967  166.3459 C.3     1  UNL1        0.0922
     21 H         139.0273  140.2026  167.6823 H       1  UNL1        0.1188
     22 H         138.5280  140.1266  169.2695 H       1  UNL1        0.1188
     23 S         140.4083  144.8616  160.3318 S.3     1  UNL1       -0.0638
     24 C         140.0206  144.0478  159.1328 C.ar    1  UNL1        0.0526
     25 C         139.0164  142.9420  159.2698 C.ar    1  UNL1        0.0096
     26 C         138.6287  142.1282  158.0709 C.ar    1  UNL1        0.0212
     27 C         139.2452  142.4203  156.7350 C.ar    1  UNL1        0.0988
     28 N         140.2493  143.5261  156.5980 N.ar    1  UNL1       -0.2394
     29 C         140.6370  144.3399  157.7969 C.ar    1  UNL1        0.1586
     30 C         141.6412  145.4458  157.6599 C.3     1  UNL1        0.4353
     31 F         142.6454  146.5516  157.5229 F       1  UNL1       -0.1644
     32 F         140.5359  146.4110  157.3493 F       1  UNL1       -0.1644
     33 F         142.7465  144.4805  157.9705 F       1  UNL1       -0.1644
@<TRIPOS>BOND
     1     1     2    1
     2     2     3   ar
     3     3     4   ar
     4     4    10    1
     5    10    11    1
     6    11    12    1
     7    12    13    1
     8    13    14    1
     9    14    15    1
    10    15    16    1
    11    16    17    1
    12    17    18    1
    13    13    19    1
    14    19    20    1
    15     4     5   ar
    16     5     6   ar
    17     6     7   ar
    18     7    23    1
    19    23    24    1
    20    24    25   ar
    21    25    26   ar
    22    26    27   ar
    23    27    28   ar
    24    28    29   ar
    25    29    30    1
    26    30    31    1
    27    30    32    1
    28    30    33    1
    29     7     2   ar
    30    29    24   ar
    31    20    10    1
    32    17    13    1
    33     1     8    1
    34     1     9    1
    35    18    21    1
    36    18    22    1
@<TRIPOS>MOLECULE
*****
 33 36 0 0 0
SMALL
GASTEIGER

@<TRIPOS>ATOM
      1 N         144.9029  144.0339  165.9050 N.pl3   1  UNL1       -0.3410
      2 C         143.6856  143.5512  165.1735 C.ar    1  UNL1        0.1508
      3 N         143.4163  144.0200  163.7743 N.ar    1  UNL1       -0.2128
      4 C         142.1990  143.5372  163.0428 C.ar    1  UNL1        0.1525
      5 C         141.2509  142.5858  163.7105 C.ar    1  UNL1        0.1337
      6 N         141.5201  142.1170  165.1097 N.ar    1  UNL1       -0.2316
      7 C         142.7375  142.5997  165.8413 C.ar    1  UNL1        0.1420
      8 H         145.5251  144.6584  165.4667 H       1  UNL1        0.1438
      9 H         145.0796  143.7263  166.8233 H       1  UNL1        0.1438
     10 N         141.9297  144.0060  161.6436 N.pl3   1  UNL1       -0.2920
     11 C         142.7959  143.5326  160.5142 C.3     1  UNL1        0.0922
     12 C         142.5266  144.0013  159.1151 C.3     1  UNL1        0.0228
     13 C         141.3911  144.9435  158.8453 C.3     1  UNL1        0.0163
     14 C         140.2977  145.8802  158.4243 C.3     1  UNL1        0.0014
     15 C         140.3987  146.0735  156.9402 C.3     1  UNL1        0.0014
     16 C         141.5545  145.2562  156.4439 C.3     1  UNL1        0.0155
     17 C         142.1678  144.5578  157.6213 C.3     1  UNL1        0.0508
     18 N         143.3502  143.6357  157.5817 N.3     1  UNL1       -0.3222
     19 C         140.5248  145.4169  159.9746 C.3     1  UNL1        0.0228
     20 C         140.7941  144.9482  161.3737 C.3     1  UNL1        0.0922
     21 H         143.5534  143.3028  158.5242 H       1  UNL1        0.1188
     22 H         144.1600  144.1366  157.2161 H       1  UNL1        0.1188
     23 S         143.0067  142.1310  167.2404 S.3     1  UNL1       -0.0638
     24 C         141.8669  141.7313  168.1299 C.ar    1  UNL1        0.0526
     25 C         140.9950  142.7826  168.7499 C.ar    1  UNL1        0.0096
     26 C         139.8552  142.3829  169.6393 C.ar    1  UNL1        0.0212
     27 C         139.5874  140.9318  169.9088 C.ar    1  UNL1        0.0988
     28 N         140.4593  139.8805  169.2888 N.ar    1  UNL1       -0.2394
     29 C         141.5991  140.2802  168.3993 C.ar    1  UNL1        0.1586
     30 C         142.4710  139.2288  167.7793 C.3     1  UNL1        0.4353
     31 F         143.3428  138.1774  167.1593 F       1  UNL1       -0.1644
     32 F         143.3155  139.1983  169.0186 F       1  UNL1       -0.1644
     33 F         141.6264  139.2593  166.5401 F       1  UNL1       -0.1644
@<TRIPOS>BOND
     1     1     2    1
     2     2     3   ar
     3     3     4   ar
     4     4    10    1
     5    10    11    1
     6    11    12    1
     7    12    13    1
     8    13    14    1
     9    14    15    1
    10    15    16    1
    11    16    17    1
    12    17    18    1
    13    13    19    1
    14    19    20    1
    15     4     5   ar
    16     5     6   ar
    17     6     7   ar
    18     7    23    1
    19    23    24    1
    20    24    25   ar
    21    25    26   ar
    22    26    27   ar
    23    27    28   ar
    24    28    29   ar
    25    29    30    1
    26    30    31    1
    27    30    32    1
    28    30    33    1
    29     7     2   ar
    30    29    24   ar
    31    20    10    1
    32    17    13    1
    33     1     8    1
    34     1     9    1
    35    18    21    1
    36    18    22    1
