@<TRIPOS>MOLECULE
*****
 23 25 0 0 0
SMALL
GASTEIGER

@<TRIPOS>ATOM
      1 C         142.3839  139.3353  168.8614 C.3     1  UNL1        0.0532
      2 C         142.1216  139.7067  167.4320 C.ar    1  UNL1        0.0761
      3 N         141.0937  140.7488  167.1044 N.ar    1  UNL1       -0.2298
      4 C         140.8313  141.1202  165.6750 C.ar    1  UNL1        0.1650
      5 N         141.5970  140.4496  164.5732 N.ar    1  UNL1       -0.1918
      6 C         142.6249  139.4075  164.9008 C.ar    1  UNL1        0.2382
      7 C         142.8872  139.0361  166.3302 C.ar    1  UNL1        0.1242
      8 CL        143.9152  137.9939  166.6578 Cl      1  UNL1       -0.0761
      9 C         139.8034  142.1624  165.3474 C.ar    1  UNL1        0.0359
     10 C         140.0135  143.5842  165.7769 C.ar    1  UNL1        0.0030
     11 C         138.9856  144.6263  165.4494 C.ar    1  UNL1        0.0001
     12 C         137.7475  144.2467  164.6923 C.ar    1  UNL1        0.0000
     13 C         137.5374  142.8249  164.2628 C.ar    1  UNL1        0.0001
     14 C         138.5653  141.7828  164.5904 C.ar    1  UNL1        0.0030
     15 O         143.3906  138.7368  163.7990 O.3     1  UNL1       -0.4596
     16 C         144.7010  139.3059  163.3421 C.3     1  UNL1        0.2086
     17 C         145.3413  140.4245  164.1096 C.3     1  UNL1        0.0647
     18 C         145.6894  141.7076  163.4150 C.3     1  UNL1        0.0759
     19 N         144.7109  142.8444  163.4051 N.3     1  UNL1       -0.2726
     20 C         144.1832  143.5641  164.6108 C.3     1  UNL1        0.0721
     21 C         143.2344  144.6256  164.1386 C.3     1  UNL1        0.0188
     22 C         143.1757  144.5619  162.6410 C.3     1  UNL1        0.0188
     23 C         144.0882  143.4611  162.1878 C.3     1  UNL1        0.0721
@<TRIPOS>BOND
     1     1     2    1
     2     2     3   ar
     3     3     4   ar
     4     4     9    1
     5     9    10   ar
     6    10    11   ar
     7    11    12   ar
     8    12    13   ar
     9    13    14   ar
    10     4     5   ar
    11     5     6   ar
    12     6    15    1
    13    15    16    1
    14    16    17    1
    15    17    18    1
    16    18    19    1
    17    19    20    1
    18    20    21    1
    19    21    22    1
    20    22    23    1
    21     6     7   ar
    22     7     8    1
    23     7     2   ar
    24    14     9   ar
    25    23    19    1
@<TRIPOS>MOLECULE
*****
 23 25 0 0 0
SMALL
GASTEIGER

@<TRIPOS>ATOM
      1 C         140.6855  145.0654  163.2494 C.3     1  UNL1        0.0532
      2 C         141.4260  144.1535  164.1823 C.ar    1  UNL1        0.0761
      3 N         140.7097  143.5209  165.3384 N.ar    1  UNL1       -0.2298
      4 C         141.4502  142.6090  166.2713 C.ar    1  UNL1        0.1650
      5 N         142.9070  142.3299  166.0480 N.ar    1  UNL1       -0.1918
      6 C         143.6232  142.9625  164.8919 C.ar    1  UNL1        0.2382
      7 C         142.8828  143.8744  163.9591 C.ar    1  UNL1        0.1242
      8 CL        143.5991  144.5071  162.8029 Cl      1  UNL1       -0.0761
      9 C         140.7338  141.9763  167.4274 C.ar    1  UNL1        0.0359
     10 C         140.1273  140.6125  167.2783 C.ar    1  UNL1        0.0030
     11 C         139.4110  139.9799  168.4344 C.ar    1  UNL1        0.0001
     12 C         139.3011  140.7110  169.7396 C.ar    1  UNL1        0.0000
     13 C         139.9077  142.0747  169.8887 C.ar    1  UNL1        0.0001
     14 C         140.6240  142.7074  168.7325 C.ar    1  UNL1        0.0030
     15 O         145.0801  142.6834  164.6687 O.3     1  UNL1       -0.4596
     16 C         145.4994  141.5165  163.8246 C.3     1  UNL1        0.2086
     17 C         145.0302  140.1341  164.1697 C.3     1  UNL1        0.0647
     18 C         144.3255  139.3023  163.1395 C.3     1  UNL1        0.0759
     19 N         143.0771  138.5553  163.5046 N.3     1  UNL1       -0.2726
     20 C         142.5416  138.3579  164.8919 C.3     1  UNL1        0.0721
     21 C         141.2785  137.5551  164.7913 C.3     1  UNL1        0.0188
     22 C         141.0333  137.2565  163.3419 C.3     1  UNL1        0.0188
     23 C         142.1449  137.8746  162.5467 C.3     1  UNL1        0.0721
@<TRIPOS>BOND
     1     1     2    1
     2     2     3   ar
     3     3     4   ar
     4     4     9    1
     5     9    10   ar
     6    10    11   ar
     7    11    12   ar
     8    12    13   ar
     9    13    14   ar
    10     4     5   ar
    11     5     6   ar
    12     6    15    1
    13    15    16    1
    14    16    17    1
    15    17    18    1
    16    18    19    1
    17    19    20    1
    18    20    21    1
    19    21    22    1
    20    22    23    1
    21     6     7   ar
    22     7     8    1
    23     7     2   ar
    24    14     9   ar
    25    23    19    1
@<TRIPOS>MOLECULE
*****
 23 25 0 0 0
SMALL
GASTEIGER

@<TRIPOS>ATOM
      1 C         138.8161  144.8178  165.0351 C.3     1  UNL1        0.0532
      2 C         139.1278  143.3834  165.3440 C.ar    1  UNL1        0.0761
      3 N         140.0430  143.0433  166.4826 N.ar    1  UNL1       -0.2298
      4 C         140.3547  141.6089  166.7916 C.ar    1  UNL1        0.1650
      5 N         139.7512  140.5147  165.9619 N.ar    1  UNL1       -0.1918
      6 C         138.8359  140.8549  164.8233 C.ar    1  UNL1        0.2382
      7 C         138.5242  142.2892  164.5144 C.ar    1  UNL1        0.1242
      8 CL        137.6088  142.6294  163.3757 Cl      1  UNL1       -0.0761
      9 C         141.2701  141.2688  167.9303 C.ar    1  UNL1        0.0359
     10 C         142.3859  142.2007  168.2997 C.ar    1  UNL1        0.0030
     11 C         143.3012  141.8607  169.4383 C.ar    1  UNL1        0.0001
     12 C         143.1007  140.5886  170.2076 C.ar    1  UNL1        0.0000
     13 C         141.9849  139.6567  169.8382 C.ar    1  UNL1        0.0001
     14 C         141.0696  139.9968  168.6995 C.ar    1  UNL1        0.0030
     15 O         138.2322  139.7607  163.9936 O.3     1  UNL1       -0.4596
     16 C         138.7385  138.3547  164.1235 C.3     1  UNL1        0.2086
     17 C         139.5915  137.7617  163.0415 C.3     1  UNL1        0.0647
     18 C         141.0192  137.3997  163.3256 C.3     1  UNL1        0.0759
     19 N         141.9083  138.3670  164.0493 N.3     1  UNL1       -0.2726
     20 C         142.3322  139.7170  163.5516 C.3     1  UNL1        0.0721
     21 C         143.2156  140.3385  164.5924 C.3     1  UNL1        0.0188
     22 C         143.3377  139.3724  165.7335 C.3     1  UNL1        0.0188
     23 C         142.5298  138.1540  165.3978 C.3     1  UNL1        0.0721
@<TRIPOS>BOND
     1     1     2    1
     2     2     3   ar
     3     3     4   ar
     4     4     9    1
     5     9    10   ar
     6    10    11   ar
     7    11    12   ar
     8    12    13   ar
     9    13    14   ar
    10     4     5   ar
    11     5     6   ar
    12     6    15    1
    13    15    16    1
    14    16    17    1
    15    17    18    1
    16    18    19    1
    17    19    20    1
    18    20    21    1
    19    21    22    1
    20    22    23    1
    21     6     7   ar
    22     7     8    1
    23     7     2   ar
    24    14     9   ar
    25    23    19    1
@<TRIPOS>MOLECULE
*****
 23 25 0 0 0
SMALL
GASTEIGER

@<TRIPOS>ATOM
      1 C         138.8797  140.1721  162.9581 C.3     1  UNL1        0.0532
      2 C         139.8539  140.8731  163.8577 C.ar    1  UNL1        0.0761
      3 N         139.5756  140.9779  165.3279 N.ar    1  UNL1       -0.2298
      4 C         140.5499  141.6789  166.2276 C.ar    1  UNL1        0.1650
      5 N         141.8024  142.2752  165.6571 N.ar    1  UNL1       -0.1918
      6 C         142.0807  142.1704  164.1869 C.ar    1  UNL1        0.2382
      7 C         141.1065  141.4694  163.2872 C.ar    1  UNL1        0.1242
      8 CL        141.3849  141.3646  161.8170 Cl      1  UNL1       -0.0761
      9 C         140.2715  141.7837  167.6979 C.ar    1  UNL1        0.0359
     10 C         139.7235  140.6030  168.4434 C.ar    1  UNL1        0.0030
     11 C         139.4451  140.7077  169.9136 C.ar    1  UNL1        0.0001
     12 C         139.7147  141.9931  170.6383 C.ar    1  UNL1        0.0000
     13 C         140.2628  143.1737  169.8928 C.ar    1  UNL1        0.0001
     14 C         140.5411  143.0690  168.4225 C.ar    1  UNL1        0.0030
     15 O         143.3333  142.7667  163.6163 O.3     1  UNL1       -0.4596
     16 C         143.3133  144.1569  163.0535 C.3     1  UNL1        0.2086
     17 C         142.3383  145.1664  163.5829 C.3     1  UNL1        0.0647
     18 C         141.0760  145.4581  162.8270 C.3     1  UNL1        0.0759
     19 N         139.7768  144.8587  163.2771 N.3     1  UNL1       -0.2726
     20 C         138.7593  144.1962  162.3962 C.3     1  UNL1        0.0721
     21 C         137.6206  143.7445  163.2617 C.3     1  UNL1        0.0188
     22 C         137.9343  144.1278  164.6777 C.3     1  UNL1        0.0188
     23 C         139.2669  144.8163  164.6871 C.3     1  UNL1        0.0721
@<TRIPOS>BOND
     1     1     2    1
     2     2     3   ar
     3     3     4   ar
     4     4     9    1
     5     9    10   ar
     6    10    11   ar
     7    11    12   ar
     8    12    13   ar
     9    13    14   ar
    10     4     5   ar
    11     5     6   ar
    12     6    15    1
    13    15    16    1
    14    16    17    1
    15    17    18    1
    16    18    19    1
    17    19    20    1
    18    20    21    1
    19    21    22    1
    20    22    23    1
    21     6     7   ar
    22     7     8    1
    23     7     2   ar
    24    14     9   ar
    25    23    19    1
@<TRIPOS>MOLECULE
*****
 23 25 0 0 0
SMALL
GASTEIGER

@<TRIPOS>ATOM
      1 C         143.7997  144.2321  163.6106 C.3     1  UNL1        0.0532
      2 C         142.5425  143.8886  164.3532 C.ar    1  UNL1        0.0761
      3 N         142.5840  142.9006  165.4811 N.ar    1  UNL1       -0.2298
      4 C         141.3268  142.5571  166.2238 C.ar    1  UNL1        0.1650
      5 N         140.0283  143.2014  165.8385 N.ar    1  UNL1       -0.1918
      6 C         139.9868  144.1894  164.7106 C.ar    1  UNL1        0.2382
      7 C         141.2440  144.5329  163.9680 C.ar    1  UNL1        0.1242
      8 CL        141.2025  145.5209  162.8400 Cl      1  UNL1       -0.0761
      9 C         141.3683  141.5691  167.3517 C.ar    1  UNL1        0.0359
     10 C         142.5264  140.6243  167.4790 C.ar    1  UNL1        0.0030
     11 C         142.5679  139.6364  168.6069 C.ar    1  UNL1        0.0001
     12 C         141.4513  139.5931  169.6076 C.ar    1  UNL1        0.0000
     13 C         140.2932  140.5378  169.4803 C.ar    1  UNL1        0.0001
     14 C         140.2517  141.5258  168.3524 C.ar    1  UNL1        0.0030
     15 O         138.6882  144.8338  164.3254 O.3     1  UNL1       -0.4596
     16 C         137.6785  144.0661  163.5247 C.3     1  UNL1        0.2086
     17 C         138.0856  142.8131  162.8075 C.3     1  UNL1        0.0647
     18 C         137.5826  141.4814  163.2802 C.3     1  UNL1        0.0759
     19 N         138.4946  140.5601  164.0349 N.3     1  UNL1       -0.2726
     20 C         138.1786  139.8730  165.3303 C.3     1  UNL1        0.0721
     21 C         139.3713  139.0524  165.7227 C.3     1  UNL1        0.0188
     22 C         140.4245  139.2324  164.6698 C.3     1  UNL1        0.0188
     23 C         139.8826  140.1642  163.6267 C.3     1  UNL1        0.0721
@<TRIPOS>BOND
     1     1     2    1
     2     2     3   ar
     3     3     4   ar
     4     4     9    1
     5     9    10   ar
     6    10    11   ar
     7    11    12   ar
     8    12    13   ar
     9    13    14   ar
    10     4     5   ar
    11     5     6   ar
    12     6    15    1
    13    15    16    1
    14    16    17    1
    15    17    18    1
    16    18    19    1
    17    19    20    1
    18    20    21    1
    19    21    22    1
    20    22    23    1
    21     6     7   ar
    22     7     8    1
    23     7     2   ar
    24    14     9   ar
    25    23    19    1
@<TRIPOS>MOLECULE
*****
 23 25 0 0 0
SMALL
GASTEIGER

@<TRIPOS>ATOM
      1 C         138.4657  139.4292  164.5571 C.3     1  UNL1        0.0532
      2 C         138.8738  140.8109  164.9747 C.ar    1  UNL1        0.0761
      3 N         139.7415  141.0036  166.1830 N.ar    1  UNL1       -0.2298
      4 C         140.1496  142.3853  166.6006 C.ar    1  UNL1        0.1650
      5 N         139.6899  143.5742  165.8100 N.ar    1  UNL1       -0.1918
      6 C         138.8222  143.3815  164.6018 C.ar    1  UNL1        0.2382
      7 C         138.4141  141.9998  164.1842 C.ar    1  UNL1        0.1242
      8 CL        137.5464  141.8071  162.9759 Cl      1  UNL1       -0.0761
      9 C         141.0174  142.5780  167.8089 C.ar    1  UNL1        0.0359
     10 C         142.4197  142.0456  167.8178 C.ar    1  UNL1        0.0030
     11 C         143.2874  142.2382  169.0260 C.ar    1  UNL1        0.0001
     12 C         142.7529  142.9634  170.2254 C.ar    1  UNL1        0.0000
     13 C         141.3506  143.4958  170.2165 C.ar    1  UNL1        0.0001
     14 C         140.4828  143.3031  169.0082 C.ar    1  UNL1        0.0030
     15 O         138.3625  144.5705  163.8111 O.3     1  UNL1       -0.4596
     16 C         139.1501  145.0289  162.6197 C.3     1  UNL1        0.2086
     17 C         140.5680  145.4881  162.7894 C.3     1  UNL1        0.0647
     18 C         141.6974  144.6332  162.2958 C.3     1  UNL1        0.0759
     19 N         142.6065  143.9527  163.2756 N.3     1  UNL1       -0.2726
     20 C         142.6310  142.4847  163.5831 C.3     1  UNL1        0.0721
     21 C         143.6905  142.2453  164.6176 C.3     1  UNL1        0.0188
     22 C         144.3208  143.5654  164.9495 C.3     1  UNL1        0.0188
     23 C         143.6509  144.6206  164.1202 C.3     1  UNL1        0.0721
@<TRIPOS>BOND
     1     1     2    1
     2     2     3   ar
     3     3     4   ar
     4     4     9    1
     5     9    10   ar
     6    10    11   ar
     7    11    12   ar
     8    12    13   ar
     9    13    14   ar
    10     4     5   ar
    11     5     6   ar
    12     6    15    1
    13    15    16    1
    14    16    17    1
    15    17    18    1
    16    18    19    1
    17    19    20    1
    18    20    21    1
    19    21    22    1
    20    22    23    1
    21     6     7   ar
    22     7     8    1
    23     7     2   ar
    24    14     9   ar
    25    23    19    1
@<TRIPOS>MOLECULE
*****
 23 25 0 0 0
SMALL
GASTEIGER

@<TRIPOS>ATOM
      1 C         145.1832  140.2442  163.9525 C.3     1  UNL1        0.0532
      2 C         143.8933  139.6192  164.3949 C.ar    1  UNL1        0.0761
      3 N         143.3473  139.9127  165.7607 N.ar    1  UNL1       -0.2298
      4 C         142.0574  139.2877  166.2031 C.ar    1  UNL1        0.1650
      5 N         141.3136  138.3693  165.2795 N.ar    1  UNL1       -0.1918
      6 C         141.8596  138.0757  163.9136 C.ar    1  UNL1        0.2382
      7 C         143.1495  138.7007  163.4713 C.ar    1  UNL1        0.1242
      8 CL        143.6955  138.4071  162.1053 Cl      1  UNL1       -0.0761
      9 C         141.5114  139.5813  167.5690 C.ar    1  UNL1        0.0359
     10 C         142.3943  139.4476  168.7743 C.ar    1  UNL1        0.0030
     11 C         141.8484  139.7412  170.1402 C.ar    1  UNL1        0.0001
     12 C         140.4195  140.1684  170.3009 C.ar    1  UNL1        0.0000
     13 C         139.5366  140.3021  169.0956 C.ar    1  UNL1        0.0001
     14 C         140.0826  140.0086  167.7297 C.ar    1  UNL1        0.0030
     15 O         141.1157  137.1572  162.9900 O.3     1  UNL1       -0.4596
     16 C         139.9948  137.6883  162.1465 C.3     1  UNL1        0.2086
     17 C         138.6834  138.0462  162.7808 C.3     1  UNL1        0.0647
     18 C         137.9646  139.2948  162.3637 C.3     1  UNL1        0.0759
     19 N         138.0851  140.5410  163.1898 N.3     1  UNL1       -0.2726
     20 C         139.0483  140.7609  164.3185 C.3     1  UNL1        0.0721
     21 C         138.8220  142.1419  164.8586 C.3     1  UNL1        0.0188
     22 C         137.7189  142.7755  164.0636 C.3     1  UNL1        0.0188
     23 C         137.2635  141.7860  163.0323 C.3     1  UNL1        0.0721
@<TRIPOS>BOND
     1     1     2    1
     2     2     3   ar
     3     3     4   ar
     4     4     9    1
     5     9    10   ar
     6    10    11   ar
     7    11    12   ar
     8    12    13   ar
     9    13    14   ar
    10     4     5   ar
    11     5     6   ar
    12     6    15    1
    13    15    16    1
    14    16    17    1
    15    17    18    1
    16    18    19    1
    17    19    20    1
    18    20    21    1
    19    21    22    1
    20    22    23    1
    21     6     7   ar
    22     7     8    1
    23     7     2   ar
    24    14     9   ar
    25    23    19    1
@<TRIPOS>MOLECULE
*****
 23 25 0 0 0
SMALL
GASTEIGER

@<TRIPOS>ATOM
      1 C         138.6675  137.9262  162.7136 C.3     1  UNL1        0.0532
      2 C         138.7765  139.0982  163.6434 C.ar    1  UNL1        0.0761
      3 N         139.4955  138.9533  164.9518 N.ar    1  UNL1       -0.2298
      4 C         139.6045  140.1253  165.8816 C.ar    1  UNL1        0.1650
      5 N         138.9943  141.4422  165.5030 N.ar    1  UNL1       -0.1918
      6 C         138.2752  141.5871  164.1947 C.ar    1  UNL1        0.2382
      7 C         138.1663  140.4151  163.2648 C.ar    1  UNL1        0.1242
      8 CL        137.4472  140.5601  161.9564 Cl      1  UNL1       -0.0761
      9 C         140.3236  139.9803  167.1900 C.ar    1  UNL1        0.0359
     10 C         141.7909  139.6694  167.2089 C.ar    1  UNL1        0.0030
     11 C         142.5100  139.5245  168.5172 C.ar    1  UNL1        0.0001
     12 C         141.7619  139.6903  169.8068 C.ar    1  UNL1        0.0000
     13 C         140.2945  140.0012  169.7879 C.ar    1  UNL1        0.0001
     14 C         139.5754  140.1462  168.4794 C.ar    1  UNL1        0.0030
     15 O         137.6650  142.9041  163.8160 O.3     1  UNL1       -0.4596
     16 C         137.7483  144.0680  164.7586 C.3     1  UNL1        0.2086
     17 C         139.0417  144.8102  164.9213 C.3     1  UNL1        0.0647
     18 C         140.0666  144.7801  163.8266 C.3     1  UNL1        0.0759
     19 N         141.4813  144.3878  164.1343 N.3     1  UNL1       -0.2726
     20 C         141.9108  143.1990  164.9420 C.3     1  UNL1        0.0721
     21 C         143.4098  143.1919  164.9952 C.3     1  UNL1        0.0188
     22 C         143.9068  144.3762  164.2203 C.3     1  UNL1        0.0188
     23 C         142.7149  145.1153  163.6882 C.3     1  UNL1        0.0721
@<TRIPOS>BOND
     1     1     2    1
     2     2     3   ar
     3     3     4   ar
     4     4     9    1
     5     9    10   ar
     6    10    11   ar
     7    11    12   ar
     8    12    13   ar
     9    13    14   ar
    10     4     5   ar
    11     5     6   ar
    12     6    15    1
    13    15    16    1
    14    16    17    1
    15    17    18    1
    16    18    19    1
    17    19    20    1
    18    20    21    1
    19    21    22    1
    20    22    23    1
    21     6     7   ar
    22     7     8    1
    23     7     2   ar
    24    14     9   ar
    25    23    19    1
@<TRIPOS>MOLECULE
*****
 23 25 0 0 0
SMALL
GASTEIGER

@<TRIPOS>ATOM
      1 C         138.8453  144.7702  163.1429 C.3     1  UNL1        0.0532
      2 C         139.9235  144.1133  163.9528 C.ar    1  UNL1        0.0761
      3 N         139.5908  143.4798  165.2710 N.ar    1  UNL1       -0.2298
      4 C         140.6690  142.8229  166.0809 C.ar    1  UNL1        0.1650
      5 N         142.0800  142.7995  165.5725 N.ar    1  UNL1       -0.1918
      6 C         142.4127  143.4330  164.2542 C.ar    1  UNL1        0.2382
      7 C         141.3345  144.0899  163.4443 C.ar    1  UNL1        0.1242
      8 CL        141.6673  144.7235  162.1260 Cl      1  UNL1       -0.0761
      9 C         140.3362  142.1893  167.3992 C.ar    1  UNL1        0.0359
     10 C         140.4592  142.9840  168.6655 C.ar    1  UNL1        0.0030
     11 C         140.1264  142.3505  169.9838 C.ar    1  UNL1        0.0001
     12 C         139.6707  140.9223  170.0358 C.ar    1  UNL1        0.0000
     13 C         139.5477  140.1277  168.7696 C.ar    1  UNL1        0.0001
     14 C         139.8805  140.7612  167.4512 C.ar    1  UNL1        0.0030
     15 O         143.8238  143.4097  163.7457 O.3     1  UNL1       -0.4596
     16 C         144.8894  142.6955  164.5231 C.3     1  UNL1        0.2086
     17 C         145.6366  141.5547  163.8981 C.3     1  UNL1        0.0647
     18 C         144.8839  140.4265  163.2574 C.3     1  UNL1        0.0759
     19 N         143.7563  139.7644  163.9923 N.3     1  UNL1       -0.2726
     20 C         142.3155  139.7571  163.5748 C.3     1  UNL1        0.0721
     21 C         141.5402  138.9816  164.5982 C.3     1  UNL1        0.0188
     22 C         142.5018  138.5096  165.6483 C.3     1  UNL1        0.0188
     23 C         143.8714  138.9934  165.2738 C.3     1  UNL1        0.0721
@<TRIPOS>BOND
     1     1     2    1
     2     2     3   ar
     3     3     4   ar
     4     4     9    1
     5     9    10   ar
     6    10    11   ar
     7    11    12   ar
     8    12    13   ar
     9    13    14   ar
    10     4     5   ar
    11     5     6   ar
    12     6    15    1
    13    15    16    1
    14    16    17    1
    15    17    18    1
    16    18    19    1
    17    19    20    1
    18    20    21    1
    19    21    22    1
    20    22    23    1
    21     6     7   ar
    22     7     8    1
    23     7     2   ar
    24    14     9   ar
    25    23    19    1
