@<TRIPOS>MOLECULE
*****
 29 32 0 0 0
SMALL
GASTEIGER

@<TRIPOS>ATOM
      1 C         143.1707  137.5446  156.7113 C.3     1  UNL1        0.1834
      2 C         143.4093  139.0254  156.7272 C.3     1  UNL1        0.1130
      3 N         142.2787  139.6691  157.4738 N.3     1  UNL1       -0.2882
      4 C         141.3413  138.5862  157.9194 C.3     1  UNL1        0.1355
      5 C         141.8926  137.2731  157.4482 C.3     1  UNL1        0.0700
      6 H         141.7879  140.3220  156.8630 H       1  UNL1        0.1237
      7 C         140.0751  138.7819  158.6993 C.2     1  UNL1        0.2401
      8 O         138.8076  139.1563  157.9899 O.2     1  UNL1       -0.2734
      9 N         140.0762  138.6031  160.1886 N.am    1  UNL1       -0.2770
     10 C         141.3949  138.2290  160.7981 C.3     1  UNL1        0.0949
     11 C         141.7216  137.9815  162.2411 C.3     1  UNL1        0.0388
     12 C         140.8105  138.0470  163.4307 C.3     1  UNL1        0.0739
     13 N         139.3476  138.3761  163.4715 N.3     1  UNL1       -0.2725
     14 C         138.4345  138.7211  162.3325 C.3     1  UNL1        0.0938
     15 C         138.7589  138.8221  160.8714 C.3     1  UNL1        0.1107
     16 C         138.7140  138.3579  164.8309 C.3     1  UNL1        0.0576
     17 C         138.2261  137.1412  165.5601 C.3     1  UNL1        0.0160
     18 C         137.6676  137.5845  166.8798 C.3     1  UNL1        0.0014
     19 C         137.8103  139.0752  166.9662 C.3     1  UNL1        0.0014
     20 C         138.4570  139.5532  165.7000 C.3     1  UNL1        0.0160
     21 O         144.0548  136.5158  156.0711 O.3     1  UNL1       -0.4777
     22 C         142.6169  132.2748  155.6285 C.ar    1  UNL1        0.0686
     23 C         143.3343  132.6972  156.8763 C.ar    1  UNL1        0.0134
     24 C         143.8136  134.1108  157.0238 C.ar    1  UNL1        0.0376
     25 C         143.5755  135.1021  155.9235 C.ar    1  UNL1        0.1385
     26 C         142.8582  134.6798  154.6758 C.ar    1  UNL1        0.0376
     27 C         142.3789  133.2661  154.5283 C.ar    1  UNL1        0.0134
     28 N         141.6583  129.4474  155.3334 N.1     1  UNL1       -0.1908
     29 C         142.1376  130.8611  155.4810 C.1     1  UNL1        0.1004
@<TRIPOS>BOND
     1    28    29    3
     2    29    22    1
     3    22    23   ar
     4    23    24   ar
     5    24    25   ar
     6    25    21    1
     7    21     1    1
     8     1     2    1
     9     2     3    1
    10     3     4    1
    11     4     7    1
    12     7     8    2
    13     7     9   am
    14     9    10    1
    15    10    11    1
    16    11    12    1
    17    12    13    1
    18    13    16    1
    19    16    17    1
    20    17    18    1
    21    18    19    1
    22    19    20    1
    23    13    14    1
    24    14    15    1
    25     4     5    1
    26    25    26   ar
    27    26    27   ar
    28    27    22   ar
    29     5     1    1
    30    15     9    1
    31    20    16    1
    32     3     6    1
@<TRIPOS>MOLECULE
*****
 29 32 0 0 0
SMALL
GASTEIGER

@<TRIPOS>ATOM
      1 C         143.8157  142.3627  164.0558 C.3     1  UNL1        0.1834
      2 C         145.2942  142.1309  163.9546 C.3     1  UNL1        0.1130
      3 N         145.6257  141.8744  162.5144 N.3     1  UNL1       -0.2882
      4 C         144.3522  141.9475  161.7254 C.3     1  UNL1        0.1355
      5 C         143.2335  142.2494  162.6780 C.3     1  UNL1        0.0700
      6 H         146.0420  140.9485  162.4147 H       1  UNL1        0.1237
      7 C         144.2203  141.7531  160.2440 C.2     1  UNL1        0.2401
      8 O         144.4828  142.8979  159.3109 O.2     1  UNL1       -0.2734
      9 N         143.8260  140.4138  159.6955 N.am    1  UNL1       -0.2770
     10 C         143.5870  139.3384  160.7136 C.3     1  UNL1        0.0949
     11 C         143.1858  137.9105  160.4890 C.3     1  UNL1        0.0388
     12 C         142.9245  137.2056  159.1912 C.3     1  UNL1        0.0739
     13 N         142.9999  137.7542  157.7971 N.3     1  UNL1       -0.2725
     14 C         143.3552  139.1433  157.3567 C.3     1  UNL1        0.0938
     15 C         143.7228  140.3270  158.2017 C.3     1  UNL1        0.1107
     16 C         142.6773  136.7856  156.6982 C.3     1  UNL1        0.0576
     17 C         141.3032  136.4165  156.2233 C.3     1  UNL1        0.0160
     18 C         141.4488  135.4188  155.1128 C.3     1  UNL1        0.0014
     19 C         142.9131  135.1712  154.9013 C.3     1  UNL1        0.0014
     20 C         143.6723  136.0159  155.8811 C.3     1  UNL1        0.0160
     21 O         143.0533  142.6563  165.3138 O.3     1  UNL1       -0.4777
     22 C         139.5977  140.0355  166.5139 C.ar    1  UNL1        0.0686
     23 C         139.3560  141.2634  165.6871 C.ar    1  UNL1        0.0134
     24 C         140.5078  142.1370  165.2870 C.ar    1  UNL1        0.0376
     25 C         141.9015  141.7827  165.7139 C.ar    1  UNL1        0.1385
     26 C         142.1432  140.5548  166.5407 C.ar    1  UNL1        0.0376
     27 C         140.9914  139.6812  166.9408 C.ar    1  UNL1        0.0134
     28 N         137.2941  138.2882  167.3141 N.1     1  UNL1       -0.1908
     29 C         138.4459  139.1619  166.9140 C.1     1  UNL1        0.1004
@<TRIPOS>BOND
     1    28    29    3
     2    29    22    1
     3    22    23   ar
     4    23    24   ar
     5    24    25   ar
     6    25    21    1
     7    21     1    1
     8     1     2    1
     9     2     3    1
    10     3     4    1
    11     4     7    1
    12     7     8    2
    13     7     9   am
    14     9    10    1
    15    10    11    1
    16    11    12    1
    17    12    13    1
    18    13    16    1
    19    16    17    1
    20    17    18    1
    21    18    19    1
    22    19    20    1
    23    13    14    1
    24    14    15    1
    25     4     5    1
    26    25    26   ar
    27    26    27   ar
    28    27    22   ar
    29     5     1    1
    30    15     9    1
    31    20    16    1
    32     3     6    1
@<TRIPOS>MOLECULE
*****
 29 32 0 0 0
SMALL
GASTEIGER

@<TRIPOS>ATOM
      1 C         140.3417  145.6919  157.3458 C.3     1  UNL1        0.1834
      2 C         141.7989  145.5985  157.0027 C.3     1  UNL1        0.1130
      3 N         142.5201  145.0369  158.1920 N.3     1  UNL1       -0.2882
      4 C         141.5087  144.7832  159.2702 C.3     1  UNL1        0.1355
      5 C         140.1623  145.1880  158.7472 C.3     1  UNL1        0.0700
      6 H         143.2170  145.7049  158.5214 H       1  UNL1        0.1237
      7 C         141.7935  144.2231  160.6322 C.2     1  UNL1        0.2401
      8 O         142.9346  144.7636  161.4419 O.2     1  UNL1       -0.2734
      9 N         140.9371  143.1224  161.1846 N.am    1  UNL1       -0.2770
     10 C         139.8237  142.6551  160.2945 C.3     1  UNL1        0.0949
     11 C         138.8055  141.5845  160.5541 C.3     1  UNL1        0.0388
     12 C         138.6493  140.7170  161.7676 C.3     1  UNL1        0.0739
     13 N         139.4725  140.7056  163.0215 N.3     1  UNL1       -0.2725
     14 C         140.6554  141.5590  163.3714 C.3     1  UNL1        0.0938
     15 C         141.3072  142.6346  162.5538 C.3     1  UNL1        0.1107
     16 C         139.0581  139.7091  164.0631 C.3     1  UNL1        0.0576
     17 C         138.3502  140.0199  165.3486 C.3     1  UNL1        0.0160
     18 C         138.1334  138.7296  166.0822 C.3     1  UNL1        0.0014
     19 C         138.7074  137.6213  165.2501 C.3     1  UNL1        0.0014
     20 C         139.2789  138.2266  164.0023 C.3     1  UNL1        0.0160
     21 O         139.2547  146.1999  156.4456 O.3     1  UNL1       -0.4777
     22 C         138.8452  150.6159  155.6831 C.ar    1  UNL1        0.0686
     23 C         139.4096  149.7204  154.6203 C.ar    1  UNL1        0.0134
     24 C         139.5461  148.2485  154.8745 C.ar    1  UNL1        0.0376
     25 C         139.1182  147.6719  156.1915 C.ar    1  UNL1        0.1385
     26 C         138.5538  148.5673  157.2542 C.ar    1  UNL1        0.0376
     27 C         138.4172  150.0393  157.0001 C.ar    1  UNL1        0.0134
     28 N         138.5721  153.5599  155.1748 N.1     1  UNL1       -0.1908
     29 C         138.7086  152.0879  155.4290 C.1     1  UNL1        0.1004
@<TRIPOS>BOND
     1    28    29    3
     2    29    22    1
     3    22    23   ar
     4    23    24   ar
     5    24    25   ar
     6    25    21    1
     7    21     1    1
     8     1     2    1
     9     2     3    1
    10     3     4    1
    11     4     7    1
    12     7     8    2
    13     7     9   am
    14     9    10    1
    15    10    11    1
    16    11    12    1
    17    12    13    1
    18    13    16    1
    19    16    17    1
    20    17    18    1
    21    18    19    1
    22    19    20    1
    23    13    14    1
    24    14    15    1
    25     4     5    1
    26    25    26   ar
    27    26    27   ar
    28    27    22   ar
    29     5     1    1
    30    15     9    1
    31    20    16    1
    32     3     6    1
@<TRIPOS>MOLECULE
*****
 29 32 0 0 0
SMALL
GASTEIGER

@<TRIPOS>ATOM
      1 C         140.3605  145.6210  156.9136 C.3     1  UNL1        0.1834
      2 C         141.7698  146.1333  156.9506 C.3     1  UNL1        0.1130
      3 N         142.5540  145.2655  157.8897 N.3     1  UNL1       -0.2882
      4 C         141.6294  144.2168  158.4331 C.3     1  UNL1        0.1355
      5 C         140.2737  144.4365  157.8298 C.3     1  UNL1        0.0700
      6 H         142.9249  145.8297  158.6542 H       1  UNL1        0.1237
      7 C         141.9961  143.1378  159.4084 C.2     1  UNL1        0.2401
      8 O         142.5314  141.8278  158.9114 O.2     1  UNL1       -0.2734
      9 N         141.8274  143.3689  160.8809 N.am    1  UNL1       -0.2770
     10 C         141.2850  144.7120  161.2709 C.3     1  UNL1        0.0949
     11 C         141.0047  145.2443  162.6451 C.3     1  UNL1        0.0388
     12 C         141.1975  144.5650  163.9683 C.3     1  UNL1        0.0739
     13 N         141.7183  143.1857  164.2446 N.3     1  UNL1       -0.2725
     14 C         142.1748  142.1450  163.2656 C.3     1  UNL1        0.0938
     15 C         142.2234  142.2266  161.7686 C.3     1  UNL1        0.1107
     16 C         141.7922  142.7955  165.6910 C.3     1  UNL1        0.0576
     17 C         143.0253  142.3570  166.4240 C.3     1  UNL1        0.0160
     18 C         142.6413  142.0657  167.8445 C.3     1  UNL1        0.0014
     19 C         141.1708  142.3242  167.9894 C.3     1  UNL1        0.0014
     20 C         140.6461  142.7752  166.6585 C.3     1  UNL1        0.0160
     21 O         139.2354  146.1927  156.1027 O.3     1  UNL1       -0.4777
     22 C         138.8749  150.6479  155.5818 C.ar    1  UNL1        0.0686
     23 C         139.4361  149.8062  154.4743 C.ar    1  UNL1        0.0134
     24 C         139.5563  148.3212  154.6479 C.ar    1  UNL1        0.0376
     25 C         139.1152  147.6778  155.9291 C.ar    1  UNL1        0.1385
     26 C         138.5541  148.5193  157.0366 C.ar    1  UNL1        0.0376
     27 C         138.4339  150.0044  156.8630 C.ar    1  UNL1        0.0134
     28 N         138.6345  153.6180  155.2347 N.1     1  UNL1       -0.1908
     29 C         138.7547  152.1329  155.4082 C.1     1  UNL1        0.1004
@<TRIPOS>BOND
     1    28    29    3
     2    29    22    1
     3    22    23   ar
     4    23    24   ar
     5    24    25   ar
     6    25    21    1
     7    21     1    1
     8     1     2    1
     9     2     3    1
    10     3     4    1
    11     4     7    1
    12     7     8    2
    13     7     9   am
    14     9    10    1
    15    10    11    1
    16    11    12    1
    17    12    13    1
    18    13    16    1
    19    16    17    1
    20    17    18    1
    21    18    19    1
    22    19    20    1
    23    13    14    1
    24    14    15    1
    25     4     5    1
    26    25    26   ar
    27    26    27   ar
    28    27    22   ar
    29     5     1    1
    30    15     9    1
    31    20    16    1
    32     3     6    1
@<TRIPOS>MOLECULE
*****
 29 32 0 0 0
SMALL
GASTEIGER

@<TRIPOS>ATOM
      1 C         139.0729  141.9971  163.6469 C.3     1  UNL1        0.1834
      2 C         137.6754  142.4288  163.3143 C.3     1  UNL1        0.1130
      3 N         137.7617  143.5984  162.3792 N.3     1  UNL1       -0.2882
      4 C         139.2125  143.8897  162.1339 C.3     1  UNL1        0.1355
      5 C         140.0229  142.9001  162.9174 C.3     1  UNL1        0.0700
      6 H         137.3117  144.4115  162.7995 H       1  UNL1        0.1237
      7 C         139.7573  144.9793  161.2587 C.2     1  UNL1        0.2401
      8 O         139.9515  146.3597  161.8127 O.2     1  UNL1       -0.2734
      9 N         140.1080  144.6886  159.8296 N.am    1  UNL1       -0.2770
     10 C         139.8757  143.2776  159.3766 C.3     1  UNL1        0.0949
     11 C         140.1227  142.6768  158.0245 C.3     1  UNL1        0.0388
     12 C         140.6628  143.3385  156.7916 C.3     1  UNL1        0.0739
     13 N         141.0896  144.7646  156.6061 N.3     1  UNL1       -0.2725
     14 C         141.0814  145.8810  157.6078 C.3     1  UNL1        0.0938
     15 C         140.6446  145.8471  159.0424 C.3     1  UNL1        0.1107
     16 C         141.5906  145.1213  155.2381 C.3     1  UNL1        0.0576
     17 C         142.9287  144.7570  154.6664 C.3     1  UNL1        0.0160
     18 C         143.0067  145.3155  153.2765 C.3     1  UNL1        0.0014
     19 C         141.7167  146.0251  152.9891 C.3     1  UNL1        0.0014
     20 C         140.8415  145.9050  154.2014 C.3     1  UNL1        0.0160
     21 O         139.4536  140.8619  164.5504 O.3     1  UNL1       -0.4777
     22 C         140.1487  141.6101  168.9330 C.ar    1  UNL1        0.0686
     23 C         140.4950  142.6678  167.9273 C.ar    1  UNL1        0.0134
     24 C         140.2633  142.4184  166.4665 C.ar    1  UNL1        0.0376
     25 C         139.6853  141.1113  166.0113 C.ar    1  UNL1        0.1385
     26 C         139.3390  140.0536  167.0169 C.ar    1  UNL1        0.0376
     27 C         139.5707  140.3030  168.4777 C.ar    1  UNL1        0.0134
     28 N         140.6122  142.1089  171.8547 N.1     1  UNL1       -0.1908
     29 C         140.3805  141.8595  170.3938 C.1     1  UNL1        0.1004
@<TRIPOS>BOND
     1    28    29    3
     2    29    22    1
     3    22    23   ar
     4    23    24   ar
     5    24    25   ar
     6    25    21    1
     7    21     1    1
     8     1     2    1
     9     2     3    1
    10     3     4    1
    11     4     7    1
    12     7     8    2
    13     7     9   am
    14     9    10    1
    15    10    11    1
    16    11    12    1
    17    12    13    1
    18    13    16    1
    19    16    17    1
    20    17    18    1
    21    18    19    1
    22    19    20    1
    23    13    14    1
    24    14    15    1
    25     4     5    1
    26    25    26   ar
    27    26    27   ar
    28    27    22   ar
    29     5     1    1
    30    15     9    1
    31    20    16    1
    32     3     6    1
@<TRIPOS>MOLECULE
*****
 29 32 0 0 0
SMALL
GASTEIGER

@<TRIPOS>ATOM
      1 C         140.2615  145.1433  160.4223 C.3     1  UNL1        0.1834
      2 C         139.8454  146.2044  161.3974 C.3     1  UNL1        0.1130
      3 N         140.7056  146.0743  162.6192 N.3     1  UNL1       -0.2882
      4 C         141.6534  144.9327  162.3994 C.3     1  UNL1        0.1355
      5 C         141.3790  144.3573  161.0416 C.3     1  UNL1        0.0700
      6 H         140.1223  145.8877  163.4349 H       1  UNL1        0.1237
      7 C         142.6931  144.4511  163.3674 C.2     1  UNL1        0.2401
      8 O         144.1264  144.8574  163.1923 O.2     1  UNL1       -0.2734
      9 N         142.2997  143.5630  164.5104 N.am    1  UNL1       -0.2770
     10 C         140.8424  143.2169  164.5939 C.3     1  UNL1        0.0949
     11 C         140.1411  142.3608  165.6064 C.3     1  UNL1        0.0388
     12 C         140.7236  141.6394  166.7854 C.3     1  UNL1        0.0739
     13 N         142.1514  141.5959  167.2433 N.3     1  UNL1       -0.2725
     14 C         143.3492  142.2631  166.6350 C.3     1  UNL1        0.0938
     15 C         143.4152  143.1385  165.4188 C.3     1  UNL1        0.1107
     16 C         142.4163  140.7770  168.4717 C.3     1  UNL1        0.0576
     17 C         142.2508  139.2911  168.5934 C.3     1  UNL1        0.0160
     18 C         142.6254  138.8958  169.9911 C.3     1  UNL1        0.0014
     19 C         143.0224  140.1375  170.7332 C.3     1  UNL1        0.0014
     20 C         142.8932  141.3001  169.7941 C.3     1  UNL1        0.0160
     21 O         139.6650  144.9092  159.0660 O.3     1  UNL1       -0.4777
     22 C         139.3239  140.7233  157.4500 C.ar    1  UNL1        0.0686
     23 C         140.2903  141.6896  156.8317 C.ar    1  UNL1        0.0134
     24 C         140.4040  143.0848  157.3703 C.ar    1  UNL1        0.0376
     25 C         139.5513  143.5139  158.5274 C.ar    1  UNL1        0.1385
     26 C         138.5849  142.5476  159.1457 C.ar    1  UNL1        0.0376
     27 C         138.4712  141.1523  158.6071 C.ar    1  UNL1        0.0134
     28 N         139.0965  137.9326  156.3727 N.1     1  UNL1       -0.1908
     29 C         139.2102  139.3279  156.9114 C.1     1  UNL1        0.1004
@<TRIPOS>BOND
     1    28    29    3
     2    29    22    1
     3    22    23   ar
     4    23    24   ar
     5    24    25   ar
     6    25    21    1
     7    21     1    1
     8     1     2    1
     9     2     3    1
    10     3     4    1
    11     4     7    1
    12     7     8    2
    13     7     9   am
    14     9    10    1
    15    10    11    1
    16    11    12    1
    17    12    13    1
    18    13    16    1
    19    16    17    1
    20    17    18    1
    21    18    19    1
    22    19    20    1
    23    13    14    1
    24    14    15    1
    25     4     5    1
    26    25    26   ar
    27    26    27   ar
    28    27    22   ar
    29     5     1    1
    30    15     9    1
    31    20    16    1
    32     3     6    1
@<TRIPOS>MOLECULE
*****
 29 32 0 0 0
SMALL
GASTEIGER

@<TRIPOS>ATOM
      1 C         141.1958  137.7731  156.3844 C.3     1  UNL1        0.1834
      2 C         141.9861  139.0191  156.6542 C.3     1  UNL1        0.1130
      3 N         141.2857  139.7873  157.7355 N.3     1  UNL1       -0.2882
      4 C         140.0624  139.0162  158.1340 C.3     1  UNL1        0.1355
      5 C         140.0068  137.7713  157.2990 C.3     1  UNL1        0.0700
      6 H         141.0166  140.7076  157.3875 H       1  UNL1        0.1237
      7 C         139.0691  139.4190  159.1832 C.2     1  UNL1        0.2401
      8 O         137.7367  139.9775  158.7796 O.2     1  UNL1       -0.2734
      9 N         139.4081  139.2635  160.6361 N.am    1  UNL1       -0.2770
     10 C         140.7651  138.6959  160.9306 C.3     1  UNL1        0.0949
     11 C         141.3944  138.4208  162.2641 C.3     1  UNL1        0.0388
     12 C         140.8223  138.6452  163.6324 C.3     1  UNL1        0.0739
     13 N         139.4796  139.2002  164.0052 N.3     1  UNL1       -0.2725
     14 C         138.3773  139.6679  163.1018 C.3     1  UNL1        0.0938
     15 C         138.3455  139.6960  161.6023 C.3     1  UNL1        0.1107
     16 C         139.2025  139.3009  165.4759 C.3     1  UNL1        0.0576
     17 C         137.9870  138.7773  166.1820 C.3     1  UNL1        0.0160
     18 C         138.1255  139.0956  167.6413 C.3     1  UNL1        0.0014
     19 C         139.4266  139.8159  167.8371 C.3     1  UNL1        0.0014
     20 C         140.0922  139.9427  166.4988 C.3     1  UNL1        0.0160
     21 O         141.5348  136.7148  155.3769 O.3     1  UNL1       -0.4777
     22 C         142.8617  132.6410  156.7529 C.ar    1  UNL1        0.0686
     23 C         141.8419  132.7683  155.6603 C.ar    1  UNL1        0.0134
     24 C         141.3997  134.1261  155.2017 C.ar    1  UNL1        0.0376
     25 C         141.9772  135.3568  155.8356 C.ar    1  UNL1        0.1385
     26 C         142.9969  135.2296  156.9282 C.ar    1  UNL1        0.0376
     27 C         143.4392  133.8717  157.3869 C.ar    1  UNL1        0.0134
     28 N         143.7464  129.9251  157.6703 N.1     1  UNL1       -0.1908
     29 C         143.3041  131.2831  157.2116 C.1     1  UNL1        0.1004
@<TRIPOS>BOND
     1    28    29    3
     2    29    22    1
     3    22    23   ar
     4    23    24   ar
     5    24    25   ar
     6    25    21    1
     7    21     1    1
     8     1     2    1
     9     2     3    1
    10     3     4    1
    11     4     7    1
    12     7     8    2
    13     7     9   am
    14     9    10    1
    15    10    11    1
    16    11    12    1
    17    12    13    1
    18    13    16    1
    19    16    17    1
    20    17    18    1
    21    18    19    1
    22    19    20    1
    23    13    14    1
    24    14    15    1
    25     4     5    1
    26    25    26   ar
    27    26    27   ar
    28    27    22   ar
    29     5     1    1
    30    15     9    1
    31    20    16    1
    32     3     6    1
@<TRIPOS>MOLECULE
*****
 29 32 0 0 0
SMALL
GASTEIGER

@<TRIPOS>ATOM
      1 C         142.1531  138.2737  159.3646 C.3     1  UNL1        0.1834
      2 C         143.0072  137.3864  160.2209 C.3     1  UNL1        0.1130
      3 N         142.3522  137.2696  161.5652 N.3     1  UNL1       -0.2882
      4 C         141.0932  138.0846  161.5399 C.3     1  UNL1        0.1355
      5 C         140.9702  138.7052  160.1798 C.3     1  UNL1        0.0700
      6 H         142.9792  137.6235  162.2877 H       1  UNL1        0.1237
      7 C         140.1270  138.2501  162.6751 C.2     1  UNL1        0.2401
      8 O         138.8064  137.5393  162.6457 O.2     1  UNL1       -0.2734
      9 N         140.4812  139.1264  163.8399 N.am    1  UNL1       -0.2770
     10 C         141.8246  139.7903  163.7699 C.3     1  UNL1        0.0949
     11 C         142.4638  140.7147  164.7635 C.3     1  UNL1        0.0388
     12 C         141.9176  141.2035  166.0721 C.3     1  UNL1        0.0739
     13 N         140.5972  140.8887  166.7106 N.3     1  UNL1       -0.2725
     14 C         139.4970  140.0073  166.1981 C.3     1  UNL1        0.0938
     15 C         139.4455  139.2230  164.9205 C.3     1  UNL1        0.1107
     16 C         140.3436  141.5416  168.0370 C.3     1  UNL1        0.0576
     17 C         139.6976  140.8974  169.2276 C.3     1  UNL1        0.0160
     18 C         139.6461  141.9110  170.3322 C.3     1  UNL1        0.0014
     19 C         140.2604  143.1817  169.8241 C.3     1  UNL1        0.0014
     20 C         140.6915  142.9533  168.4056 C.3     1  UNL1        0.0160
     21 O         142.4328  138.6614  157.9428 O.3     1  UNL1       -0.4777
     22 C         142.1031  135.5932  154.6676 C.ar    1  UNL1        0.0686
     23 C         140.8769  136.0279  155.4143 C.ar    1  UNL1        0.0134
     24 C         140.9868  137.0506  156.5060 C.ar    1  UNL1        0.0376
     25 C         142.3229  137.6386  156.8511 C.ar    1  UNL1        0.1385
     26 C         143.5490  137.2039  156.1044 C.ar    1  UNL1        0.0376
     27 C         143.4392  136.1812  155.0127 C.ar    1  UNL1        0.0134
     28 N         141.8833  133.5477  152.4841 N.1     1  UNL1       -0.1908
     29 C         141.9932  134.5704  153.5758 C.1     1  UNL1        0.1004
@<TRIPOS>BOND
     1    28    29    3
     2    29    22    1
     3    22    23   ar
     4    23    24   ar
     5    24    25   ar
     6    25    21    1
     7    21     1    1
     8     1     2    1
     9     2     3    1
    10     3     4    1
    11     4     7    1
    12     7     8    2
    13     7     9   am
    14     9    10    1
    15    10    11    1
    16    11    12    1
    17    12    13    1
    18    13    16    1
    19    16    17    1
    20    17    18    1
    21    18    19    1
    22    19    20    1
    23    13    14    1
    24    14    15    1
    25     4     5    1
    26    25    26   ar
    27    26    27   ar
    28    27    22   ar
    29     5     1    1
    30    15     9    1
    31    20    16    1
    32     3     6    1
@<TRIPOS>MOLECULE
*****
 29 32 0 0 0
SMALL
GASTEIGER

@<TRIPOS>ATOM
      1 C         142.5920  138.2029  164.6399 C.3     1  UNL1        0.1834
      2 C         141.4541  137.2261  164.6096 C.3     1  UNL1        0.1130
      3 N         141.0736  137.0021  163.1761 N.3     1  UNL1       -0.2882
      4 C         141.9762  137.8404  162.3204 C.3     1  UNL1        0.1355
      5 C         142.9147  138.5826  163.2251 C.3     1  UNL1        0.0700
      6 H         140.1026  137.2777  163.0286 H       1  UNL1        0.1237
      7 C         141.9458  137.9223  160.8230 C.2     1  UNL1        0.2401
      8 O         143.0554  137.3159  160.0160 O.2     1  UNL1       -0.2734
      9 N         140.8059  138.6106  160.1324 N.am    1  UNL1       -0.2770
     10 C         139.7500  139.1821  161.0316 C.3     1  UNL1        0.0949
     11 C         138.4999  139.9206  160.6545 C.3     1  UNL1        0.0388
     12 C         137.9972  140.2699  159.2852 C.3     1  UNL1        0.0739
     13 N         138.6202  139.9671  157.9547 N.3     1  UNL1       -0.2725
     14 C         139.8999  139.2401  157.6650 C.3     1  UNL1        0.0938
     15 C         140.8726  138.6365  158.6342 C.3     1  UNL1        0.1107
     16 C         137.8635  140.4558  156.7554 C.3     1  UNL1        0.0576
     17 C         138.1555  140.1067  155.3261 C.3     1  UNL1        0.0160
     18 C         137.1544  140.8146  154.4620 C.3     1  UNL1        0.0014
     19 C         136.2436  141.6013  155.3573 C.3     1  UNL1        0.0014
     20 C         136.6818  141.3795  156.7747 C.3     1  UNL1        0.0160
     21 O         143.2855  138.7109  165.8692 O.3     1  UNL1       -0.4777
     22 C         141.3906  141.9583  168.3418 C.ar    1  UNL1        0.0686
     23 C         141.5707  142.1486  166.8648 C.ar    1  UNL1        0.0134
     24 C         142.2023  141.0661  166.0407 C.ar    1  UNL1        0.0376
     25 C         142.6539  139.7933  166.6934 C.ar    1  UNL1        0.1385
     26 C         142.4738  139.6030  168.1703 C.ar    1  UNL1        0.0376
     27 C         141.8422  140.6855  168.9945 C.ar    1  UNL1        0.0134
     28 N         140.1273  144.1232  169.9902 N.1     1  UNL1       -0.1908
     29 C         140.7590  143.0407  169.1660 C.1     1  UNL1        0.1004
@<TRIPOS>BOND
     1    28    29    3
     2    29    22    1
     3    22    23   ar
     4    23    24   ar
     5    24    25   ar
     6    25    21    1
     7    21     1    1
     8     1     2    1
     9     2     3    1
    10     3     4    1
    11     4     7    1
    12     7     8    2
    13     7     9   am
    14     9    10    1
    15    10    11    1
    16    11    12    1
    17    12    13    1
    18    13    16    1
    19    16    17    1
    20    17    18    1
    21    18    19    1
    22    19    20    1
    23    13    14    1
    24    14    15    1
    25     4     5    1
    26    25    26   ar
    27    26    27   ar
    28    27    22   ar
    29     5     1    1
    30    15     9    1
    31    20    16    1
    32     3     6    1
