@<TRIPOS>MOLECULE
*****
 28 30 0 0 0
SMALL
GASTEIGER

@<TRIPOS>ATOM
      1 C         140.6596  139.0963  163.9324 C.ar    1  UNL1        0.1721
      2 C         140.0944  139.6677  165.1988 C.ar    1  UNL1        0.0371
      3 C         140.9036  139.6385  166.4615 C.ar    1  UNL1       -0.0048
      4 C         142.2782  139.0381  166.4576 C.ar    1  UNL1        0.0003
      5 C         142.8434  138.4668  165.1911 C.ar    1  UNL1        0.0398
      6 C         142.0342  138.4959  163.9285 C.ar    1  UNL1        0.1727
      7 C         140.3383  140.2099  167.7280 C.3     1  UNL1        0.0773
      8 C         139.1345  139.7014  168.4643 C.3     1  UNL1        0.0221
      9 C         138.9297  140.5673  169.6719 C.3     1  UNL1        0.0268
     10 C         140.0071  141.6110  169.6819 C.3     1  UNL1        0.1315
     11 N         140.8776  141.3901  168.4805 N.3     1  UNL1       -0.2890
     12 H         141.8356  141.2034  168.7768 H       1  UNL1        0.1239
     13 C         140.1830  142.6867  170.7124 C.2     1  UNL1        0.2336
     14 N         140.0602  144.1291  170.3194 N.am    1  UNL1       -0.3277
     15 O         140.4817  142.3200  172.1359 O.2     1  UNL1       -0.2739
     16 H         139.8641  144.3697  169.3851 H       1  UNL1        0.1450
     17 H         140.1756  144.8351  170.9957 H       1  UNL1        0.1450
     18 C         138.6506  138.2366  162.5272 C.3     1  UNL1        0.2526
     19 O         139.8503  139.1255  162.6697 O.3     1  UNL1       -0.4684
     20 O         142.5995  137.9246  162.6620 O.3     1  UNL1       -0.4675
     21 C         143.9050  138.4337  162.1267 C.3     1  UNL1        0.2344
     22 C         144.1352  139.9097  161.9902 C.ar    1  UNL1        0.0486
     23 C         143.5483  140.6560  160.8290 C.ar    1  UNL1        0.0016
     24 C         143.7784  142.1319  160.6924 C.ar    1  UNL1       -0.0001
     25 C         144.5955  142.8615  161.7172 C.ar    1  UNL1        0.0023
     26 C         145.1824  142.1151  162.8784 C.ar    1  UNL1        0.0294
     27 C         144.9522  140.6392  163.0150 C.ar    1  UNL1        0.1396
     28 F         145.5391  139.8929  164.1762 F       1  UNL1       -0.2044
@<TRIPOS>BOND
     1    18    19    1
     2    19     1    1
     3     1     2   ar
     4     2     3   ar
     5     7     3    1
     6     7     8    1
     7     8     9    1
     8     9    10    1
     9    10    13    1
    10    13    14   am
    11    13    15    2
    12    10    11    1
    13     3     4   ar
    14     4     5   ar
    15     5     6   ar
    16     6    20    1
    17    20    21    1
    18    21    22    1
    19    22    23   ar
    20    23    24   ar
    21    24    25   ar
    22    25    26   ar
    23    26    27   ar
    24    27    28    1
    25     6     1   ar
    26    27    22   ar
    27    11     7    1
    28    14    16    1
    29    14    17    1
    30    11    12    1
@<TRIPOS>MOLECULE
*****
 28 30 0 0 0
SMALL
GASTEIGER

@<TRIPOS>ATOM
      1 C         138.9156  140.8477  163.7239 C.ar    1  UNL1        0.1721
      2 C         139.4253  141.5019  164.9738 C.ar    1  UNL1        0.0371
      3 C         139.5795  140.6987  166.2312 C.ar    1  UNL1       -0.0048
      4 C         139.2241  139.2415  166.2388 C.ar    1  UNL1        0.0003
      5 C         138.7144  138.5874  164.9889 C.ar    1  UNL1        0.0398
      6 C         138.5601  139.3905  163.7314 C.ar    1  UNL1        0.1727
      7 C         140.0892  141.3529  167.4812 C.3     1  UNL1        0.0773
      8 C         140.4344  142.8041  167.6390 C.3     1  UNL1        0.0221
      9 C         140.9018  143.0188  169.0481 C.3     1  UNL1        0.0268
     10 C         140.8454  141.7002  169.7612 C.3     1  UNL1        0.1315
     11 N         140.3433  140.6707  168.7927 N.3     1  UNL1       -0.2890
     12 H         139.4777  140.2596  169.1424 H       1  UNL1        0.1239
     13 C         141.2247  141.4545  171.1914 C.2     1  UNL1        0.2336
     14 N         142.3639  140.5349  171.5179 N.am    1  UNL1       -0.3277
     15 O         140.4647  142.1282  172.2953 O.2     1  UNL1       -0.2739
     16 H         142.8627  140.0928  170.7934 H       1  UNL1        0.1450
     17 H         142.6129  140.3736  172.4566 H       1  UNL1        0.1450
     18 C         137.7657  142.7713  162.4095 C.3     1  UNL1        0.2526
     19 O         138.7614  141.6509  162.4664 O.3     1  UNL1       -0.4684
     20 O         138.0504  138.7363  162.4815 O.3     1  UNL1       -0.4675
     21 C         138.9866  137.9536  161.6093 C.3     1  UNL1        0.2344
     22 C         140.4313  138.3469  161.5171 C.ar    1  UNL1        0.0486
     23 C         140.8585  139.4111  160.5502 C.ar    1  UNL1        0.0016
     24 C         142.3031  139.8044  160.4580 C.ar    1  UNL1       -0.0001
     25 C         143.3203  139.1336  161.3326 C.ar    1  UNL1        0.0023
     26 C         142.8930  138.0694  162.2995 C.ar    1  UNL1        0.0294
     27 C         141.4485  137.6760  162.3918 C.ar    1  UNL1        0.1396
     28 F         141.0212  136.6118  163.3587 F       1  UNL1       -0.2044
@<TRIPOS>BOND
     1    18    19    1
     2    19     1    1
     3     1     2   ar
     4     2     3   ar
     5     7     3    1
     6     7     8    1
     7     8     9    1
     8     9    10    1
     9    10    13    1
    10    13    14   am
    11    13    15    2
    12    10    11    1
    13     3     4   ar
    14     4     5   ar
    15     5     6   ar
    16     6    20    1
    17    20    21    1
    18    21    22    1
    19    22    23   ar
    20    23    24   ar
    21    24    25   ar
    22    25    26   ar
    23    26    27   ar
    24    27    28    1
    25     6     1   ar
    26    27    22   ar
    27    11     7    1
    28    14    16    1
    29    14    17    1
    30    11    12    1
@<TRIPOS>MOLECULE
*****
 28 30 0 0 0
SMALL
GASTEIGER

@<TRIPOS>ATOM
      1 C         143.5234  140.8410  164.2664 C.ar    1  UNL1        0.1721
      2 C         143.1732  141.6477  165.4815 C.ar    1  UNL1        0.0371
      3 C         142.8021  140.9560  166.7597 C.ar    1  UNL1       -0.0048
      4 C         142.7812  139.4575  166.8228 C.ar    1  UNL1        0.0003
      5 C         143.1313  138.6507  165.6077 C.ar    1  UNL1        0.0398
      6 C         143.5024  139.3425  164.3295 C.ar    1  UNL1        0.1727
      7 C         142.4520  141.7629  167.9748 C.3     1  UNL1        0.0773
      8 C         143.4077  142.2134  169.0395 C.3     1  UNL1        0.0221
      9 C         142.6310  142.9898  170.0612 C.3     1  UNL1        0.0268
     10 C         141.1952  143.0191  169.6280 C.3     1  UNL1        0.1315
     11 N         141.0845  142.2608  168.3385 N.3     1  UNL1       -0.2890
     12 H         140.7335  142.8758  167.6044 H       1  UNL1        0.1239
     13 C         140.0679  143.6890  170.3564 C.2     1  UNL1        0.2336
     14 N         139.0747  142.8654  171.1213 N.am    1  UNL1       -0.3277
     15 O         139.9340  145.1826  170.3198 O.2     1  UNL1       -0.2739
     16 H         139.1626  141.8851  171.1453 H       1  UNL1        0.1450
     17 H         138.3349  143.3051  171.5993 H       1  UNL1        0.1450
     18 C         142.8779  142.3631  162.2623 C.3     1  UNL1        0.2526
     19 O         143.8945  141.5327  162.9882 O.3     1  UNL1       -0.4684
     20 O         143.8526  138.5356  163.1144 O.3     1  UNL1       -0.4675
     21 C         142.7755  138.1080  162.1621 C.3     1  UNL1        0.2344
     22 C         141.3366  138.3840  162.4842 C.ar    1  UNL1        0.0486
     23 C         140.6458  139.5684  161.8759 C.ar    1  UNL1        0.0016
     24 C         139.2070  139.8444  162.1979 C.ar    1  UNL1       -0.0001
     25 C         138.4591  138.9361  163.1282 C.ar    1  UNL1        0.0023
     26 C         139.1500  137.7517  163.7365 C.ar    1  UNL1        0.0294
     27 C         140.5887  137.4757  163.4145 C.ar    1  UNL1        0.1396
     28 F         141.2796  136.2913  164.0227 F       1  UNL1       -0.2044
@<TRIPOS>BOND
     1    18    19    1
     2    19     1    1
     3     1     2   ar
     4     2     3   ar
     5     7     3    1
     6     7     8    1
     7     8     9    1
     8     9    10    1
     9    10    13    1
    10    13    14   am
    11    13    15    2
    12    10    11    1
    13     3     4   ar
    14     4     5   ar
    15     5     6   ar
    16     6    20    1
    17    20    21    1
    18    21    22    1
    19    22    23   ar
    20    23    24   ar
    21    24    25   ar
    22    25    26   ar
    23    26    27   ar
    24    27    28    1
    25     6     1   ar
    26    27    22   ar
    27    11     7    1
    28    14    16    1
    29    14    17    1
    30    11    12    1
@<TRIPOS>MOLECULE
*****
 28 30 0 0 0
SMALL
GASTEIGER

@<TRIPOS>ATOM
      1 C         140.5643  138.3489  164.3599 C.ar    1  UNL1        0.1721
      2 C         141.2845  138.8549  165.5745 C.ar    1  UNL1        0.0371
      3 C         140.5146  139.5009  166.6881 C.ar    1  UNL1       -0.0048
      4 C         139.0246  139.6409  166.5870 C.ar    1  UNL1        0.0003
      5 C         138.3045  139.1349  165.3724 C.ar    1  UNL1        0.0398
      6 C         139.0743  138.4889  164.2589 C.ar    1  UNL1        0.1727
      7 C         141.2349  140.0069  167.9027 C.3     1  UNL1        0.0773
      8 C         142.5681  139.5315  168.3990 C.3     1  UNL1        0.0221
      9 C         142.9055  140.3079  169.6373 C.3     1  UNL1        0.0268
     10 C         141.7807  141.2632  169.9063 C.3     1  UNL1        0.1315
     11 N         140.7482  141.0771  168.8343 N.3     1  UNL1       -0.2890
     12 H         140.6199  141.9498  168.3220 H       1  UNL1        0.1239
     13 C         141.7022  142.2341  171.0470 C.2     1  UNL1        0.2336
     14 N         142.7924  143.2445  171.2482 N.am    1  UNL1       -0.3277
     15 O         140.5336  142.1944  171.9866 O.2     1  UNL1       -0.2739
     16 H         143.5594  143.2705  170.6316 H       1  UNL1        0.1450
     17 H         142.7409  143.8817  171.9969 H       1  UNL1        0.1450
     18 C         142.6851  138.2307  162.8638 C.3     1  UNL1        0.2526
     19 O         141.3342  137.7029  163.2463 O.3     1  UNL1       -0.4684
     20 O         138.3541  137.9829  163.0442 O.3     1  UNL1       -0.4675
     21 C         137.9008  138.9446  161.9862 C.3     1  UNL1        0.2344
     22 C         138.3004  140.3884  162.0639 C.ar    1  UNL1        0.0486
     23 C         137.3817  141.3875  162.7025 C.ar    1  UNL1        0.0016
     24 C         137.7813  142.8312  162.7803 C.ar    1  UNL1       -0.0001
     25 C         139.0996  143.2757  162.2195 C.ar    1  UNL1        0.0023
     26 C         140.0183  142.2766  161.5809 C.ar    1  UNL1        0.0294
     27 C         139.6187  140.8329  161.5031 C.ar    1  UNL1        0.1396
     28 F         140.5373  139.8337  160.8646 F       1  UNL1       -0.2044
@<TRIPOS>BOND
     1    18    19    1
     2    19     1    1
     3     1     2   ar
     4     2     3   ar
     5     7     3    1
     6     7     8    1
     7     8     9    1
     8     9    10    1
     9    10    13    1
    10    13    14   am
    11    13    15    2
    12    10    11    1
    13     3     4   ar
    14     4     5   ar
    15     5     6   ar
    16     6    20    1
    17    20    21    1
    18    21    22    1
    19    22    23   ar
    20    23    24   ar
    21    24    25   ar
    22    25    26   ar
    23    26    27   ar
    24    27    28    1
    25     6     1   ar
    26    27    22   ar
    27    11     7    1
    28    14    16    1
    29    14    17    1
    30    11    12    1
@<TRIPOS>MOLECULE
*****
 28 30 0 0 0
SMALL
GASTEIGER

@<TRIPOS>ATOM
      1 C         141.8258  143.8090  164.0158 C.ar    1  UNL1        0.1721
      2 C         141.7856  142.9633  165.2540 C.ar    1  UNL1        0.0371
      3 C         140.5795  142.9952  166.1452 C.ar    1  UNL1       -0.0048
      4 C         139.4135  143.8726  165.7981 C.ar    1  UNL1        0.0003
      5 C         139.4537  144.7183  164.5599 C.ar    1  UNL1        0.0398
      6 C         140.6599  144.6864  163.6687 C.ar    1  UNL1        0.1727
      7 C         140.5393  142.1495  167.3834 C.3     1  UNL1        0.0773
      8 C         139.9171  140.7898  167.5028 C.3     1  UNL1        0.0221
      9 C         140.1076  140.3150  168.9128 C.3     1  UNL1        0.0268
     10 C         140.8475  141.3813  169.6650 C.3     1  UNL1        0.1315
     11 N         141.1143  142.5150  168.7198 N.3     1  UNL1       -0.2890
     12 H         142.1196  142.6653  168.6346 H       1  UNL1        0.1239
     13 C         141.2500  141.3238  171.1088 C.2     1  UNL1        0.2336
     14 N         142.4015  140.4611  171.5327 N.am    1  UNL1       -0.3277
     15 O         140.5009  142.1291  172.1289 O.2     1  UNL1       -0.2739
     16 H         142.8931  139.9325  170.8632 H       1  UNL1        0.1450
     17 H         142.6657  140.4233  172.4803 H       1  UNL1        0.1450
     18 C         144.2568  143.0213  163.5470 C.3     1  UNL1        0.2526
     19 O         143.0320  143.7772  163.1247 O.3     1  UNL1       -0.4684
     20 O         140.7000  145.5321  162.4304 O.3     1  UNL1       -0.4675
     21 C         139.9655  145.0934  161.1984 C.3     1  UNL1        0.2344
     22 C         139.8544  143.6337  160.8714 C.ar    1  UNL1        0.0486
     23 C         140.9357  142.9576  160.0817 C.ar    1  UNL1        0.0016
     24 C         140.8246  141.4980  159.7546 C.ar    1  UNL1       -0.0001
     25 C         139.6322  140.7144  160.2172 C.ar    1  UNL1        0.0023
     26 C         138.5509  141.3904  161.0069 C.ar    1  UNL1        0.0294
     27 C         138.6619  142.8501  161.3340 C.ar    1  UNL1        0.1396
     28 F         137.5806  143.5261  162.1237 F       1  UNL1       -0.2044
@<TRIPOS>BOND
     1    18    19    1
     2    19     1    1
     3     1     2   ar
     4     2     3   ar
     5     7     3    1
     6     7     8    1
     7     8     9    1
     8     9    10    1
     9    10    13    1
    10    13    14   am
    11    13    15    2
    12    10    11    1
    13     3     4   ar
    14     4     5   ar
    15     5     6   ar
    16     6    20    1
    17    20    21    1
    18    21    22    1
    19    22    23   ar
    20    23    24   ar
    21    24    25   ar
    22    25    26   ar
    23    26    27   ar
    24    27    28    1
    25     6     1   ar
    26    27    22   ar
    27    11     7    1
    28    14    16    1
    29    14    17    1
    30    11    12    1
@<TRIPOS>MOLECULE
*****
 28 30 0 0 0
SMALL
GASTEIGER

@<TRIPOS>ATOM
      1 C         142.5329  138.5237  163.4488 C.ar    1  UNL1        0.1721
      2 C         142.9086  139.2141  164.7263 C.ar    1  UNL1        0.0371
      3 C         141.8735  139.4432  165.7875 C.ar    1  UNL1       -0.0048
      4 C         140.4628  138.9819  165.5712 C.ar    1  UNL1        0.0003
      5 C         140.0871  138.2914  164.2937 C.ar    1  UNL1        0.0398
      6 C         141.1221  138.0623  163.2325 C.ar    1  UNL1        0.1727
      7 C         142.2493  140.1337  167.0651 C.3     1  UNL1        0.0773
      8 C         142.6967  141.5592  167.1983 C.3     1  UNL1        0.0221
      9 C         142.9675  141.8264  168.6492 C.3     1  UNL1        0.0268
     10 C         142.6876  140.5659  169.4128 C.3     1  UNL1        0.1315
     11 N         142.2437  139.5198  168.4337 N.3     1  UNL1       -0.2890
     12 H         141.3024  139.2040  168.6676 H       1  UNL1        0.1239
     13 C         142.8270  140.3836  170.8951 C.2     1  UNL1        0.2336
     14 N         143.9345  139.5349  171.4455 N.am    1  UNL1       -0.3277
     15 O         141.8589  141.0502  171.8271 O.2     1  UNL1       -0.2739
     16 H         144.5699  139.0974  170.8338 H       1  UNL1        0.1450
     17 H         144.0261  139.4152  172.4184 H       1  UNL1        0.1450
     18 C         144.0268  139.4355  161.5287 C.3     1  UNL1        0.2526
     19 O         143.5680  138.2946  162.3876 O.3     1  UNL1       -0.4684
     20 O         140.7463  137.3719  161.9549 O.3     1  UNL1       -0.4675
     21 C         140.2100  138.1675  160.8021 C.3     1  UNL1        0.2344
     22 C         139.6169  139.5248  161.0389 C.ar    1  UNL1        0.0486
     23 C         140.4260  140.7563  160.7579 C.ar    1  UNL1        0.0016
     24 C         139.8330  142.1135  160.9947 C.ar    1  UNL1       -0.0001
     25 C         138.4309  142.2394  161.5126 C.ar    1  UNL1        0.0023
     26 C         137.6218  141.0079  161.7936 C.ar    1  UNL1        0.0294
     27 C         138.2148  139.6507  161.5568 C.ar    1  UNL1        0.1396
     28 F         137.4057  138.4193  161.8378 F       1  UNL1       -0.2044
@<TRIPOS>BOND
     1    18    19    1
     2    19     1    1
     3     1     2   ar
     4     2     3   ar
     5     7     3    1
     6     7     8    1
     7     8     9    1
     8     9    10    1
     9    10    13    1
    10    13    14   am
    11    13    15    2
    12    10    11    1
    13     3     4   ar
    14     4     5   ar
    15     5     6   ar
    16     6    20    1
    17    20    21    1
    18    21    22    1
    19    22    23   ar
    20    23    24   ar
    21    24    25   ar
    22    25    26   ar
    23    26    27   ar
    24    27    28    1
    25     6     1   ar
    26    27    22   ar
    27    11     7    1
    28    14    16    1
    29    14    17    1
    30    11    12    1
@<TRIPOS>MOLECULE
*****
 28 30 0 0 0
SMALL
GASTEIGER

@<TRIPOS>ATOM
      1 C         138.5609  141.1216  164.3117 C.ar    1  UNL1        0.1721
      2 C         139.4222  141.0011  165.5337 C.ar    1  UNL1        0.0371
      3 C         140.0243  142.2285  166.1510 C.ar    1  UNL1       -0.0048
      4 C         139.7650  143.5764  165.5462 C.ar    1  UNL1        0.0003
      5 C         138.9037  143.6969  164.3242 C.ar    1  UNL1        0.0398
      6 C         138.3016  142.4696  163.7069 C.ar    1  UNL1        0.1727
      7 C         140.8857  142.1079  167.3732 C.3     1  UNL1        0.0773
      8 C         142.3720  142.3024  167.4270 C.3     1  UNL1        0.0221
      9 C         142.8168  142.0864  168.8431 C.3     1  UNL1        0.0268
     10 C         141.6053  141.7582  169.6646 C.3     1  UNL1        0.1315
     11 N         140.4118  141.7715  168.7561 N.3     1  UNL1       -0.2890
     12 H         139.7432  142.4735  169.0732 H       1  UNL1        0.1239
     13 C         141.5901  141.4678  171.1361 C.2     1  UNL1        0.2336
     14 N         142.5815  140.5060  171.7210 N.am    1  UNL1       -0.3277
     15 O         140.5834  142.1391  172.0227 O.2     1  UNL1       -0.2739
     16 H         143.2422  140.0654  171.1391 H       1  UNL1        0.1450
     17 H         142.5715  140.3154  172.6868 H       1  UNL1        0.1450
     18 C         138.8209  138.7022  163.4012 C.3     1  UNL1        0.2526
     19 O         137.9588  139.8942  163.6944 O.3     1  UNL1       -0.4684
     20 O         137.4402  142.5901  162.4847 O.3     1  UNL1       -0.4675
     21 C         138.0653  142.5668  161.1214 C.3     1  UNL1        0.2344
     22 C         138.9139  141.4021  160.7052 C.ar    1  UNL1        0.0486
     23 C         138.2955  140.2459  159.9766 C.ar    1  UNL1        0.0016
     24 C         139.1441  139.0812  159.5604 C.ar    1  UNL1       -0.0001
     25 C         140.6111  139.0726  159.8728 C.ar    1  UNL1        0.0023
     26 C         141.2296  140.2288  160.6013 C.ar    1  UNL1        0.0294
     27 C         140.3810  141.3935  161.0175 C.ar    1  UNL1        0.1396
     28 F         140.9995  142.5496  161.7461 F       1  UNL1       -0.2044
@<TRIPOS>BOND
     1    18    19    1
     2    19     1    1
     3     1     2   ar
     4     2     3   ar
     5     7     3    1
     6     7     8    1
     7     8     9    1
     8     9    10    1
     9    10    13    1
    10    13    14   am
    11    13    15    2
    12    10    11    1
    13     3     4   ar
    14     4     5   ar
    15     5     6   ar
    16     6    20    1
    17    20    21    1
    18    21    22    1
    19    22    23   ar
    20    23    24   ar
    21    24    25   ar
    22    25    26   ar
    23    26    27   ar
    24    27    28    1
    25     6     1   ar
    26    27    22   ar
    27    11     7    1
    28    14    16    1
    29    14    17    1
    30    11    12    1
@<TRIPOS>MOLECULE
*****
 28 30 0 0 0
SMALL
GASTEIGER

@<TRIPOS>ATOM
      1 C         140.8390  138.5347  164.7650 C.ar    1  UNL1        0.1721
      2 C         141.4289  139.1866  165.9802 C.ar    1  UNL1        0.0371
      3 C         140.5295  139.7567  167.0367 C.ar    1  UNL1       -0.0048
      4 C         139.0402  139.6748  166.8779 C.ar    1  UNL1        0.0003
      5 C         138.4503  139.0228  165.6627 C.ar    1  UNL1        0.0398
      6 C         139.3497  138.4528  164.6062 C.ar    1  UNL1        0.1727
      7 C         141.1195  140.4086  168.2520 C.3     1  UNL1        0.0773
      8 C         140.7528  140.1141  169.6764 C.3     1  UNL1        0.0221
      9 C         141.5864  140.9930  170.5609 C.3     1  UNL1        0.0268
     10 C         142.4685  141.8308  169.6833 C.3     1  UNL1        0.1315
     11 N         142.1799  141.4696  168.2563 N.3     1  UNL1       -0.2890
     12 H         143.0262  141.1149  167.8111 H       1  UNL1        0.1239
     13 C         143.4642  142.8507  170.1506 C.2     1  UNL1        0.2336
     14 N         143.0806  143.8443  171.2067 N.am    1  UNL1       -0.3277
     15 O         144.8435  142.8769  169.5617 O.2     1  UNL1       -0.2739
     16 H         142.1752  143.8271  171.5932 H       1  UNL1        0.1450
     17 H         143.7341  144.5137  171.5135 H       1  UNL1        0.1450
     18 C         143.0569  138.6165  163.4143 C.3     1  UNL1        0.2526
     19 O         141.7384  137.9646  163.7085 O.3     1  UNL1       -0.4684
     20 O         138.7597  137.8008  163.3909 O.3     1  UNL1       -0.4675
     21 C         138.1330  138.6416  162.3184 C.3     1  UNL1        0.2344
     22 C         138.7589  139.9476  161.9275 C.ar    1  UNL1        0.0486
     23 C         140.0343  139.9615  161.1381 C.ar    1  UNL1        0.0016
     24 C         140.6602  141.2674  160.7472 C.ar    1  UNL1       -0.0001
     25 C         140.0106  142.5593  161.1457 C.ar    1  UNL1        0.0023
     26 C         138.7352  142.5454  161.9350 C.ar    1  UNL1        0.0294
     27 C         138.1093  141.2395  162.3259 C.ar    1  UNL1        0.1396
     28 F         136.8339  141.2256  163.1153 F       1  UNL1       -0.2044
@<TRIPOS>BOND
     1    18    19    1
     2    19     1    1
     3     1     2   ar
     4     2     3   ar
     5     7     3    1
     6     7     8    1
     7     8     9    1
     8     9    10    1
     9    10    13    1
    10    13    14   am
    11    13    15    2
    12    10    11    1
    13     3     4   ar
    14     4     5   ar
    15     5     6   ar
    16     6    20    1
    17    20    21    1
    18    21    22    1
    19    22    23   ar
    20    23    24   ar
    21    24    25   ar
    22    25    26   ar
    23    26    27   ar
    24    27    28    1
    25     6     1   ar
    26    27    22   ar
    27    11     7    1
    28    14    16    1
    29    14    17    1
    30    11    12    1
@<TRIPOS>MOLECULE
*****
 28 30 0 0 0
SMALL
GASTEIGER

@<TRIPOS>ATOM
      1 C         142.3759  141.7749  163.8894 C.ar    1  UNL1        0.1721
      2 C         142.3972  141.5031  165.3644 C.ar    1  UNL1        0.0371
      3 C         141.7223  140.2803  165.9115 C.ar    1  UNL1       -0.0048
      4 C         141.0260  139.3294  164.9836 C.ar    1  UNL1        0.0003
      5 C         141.0047  139.6013  163.5087 C.ar    1  UNL1        0.0398
      6 C         141.6797  140.8240  162.9615 C.ar    1  UNL1        0.1727
      7 C         141.7436  140.0085  167.3866 C.3     1  UNL1        0.0773
      8 C         142.8068  139.2545  168.1289 C.3     1  UNL1        0.0221
      9 C         142.4257  139.2230  169.5793 C.3     1  UNL1        0.0268
     10 C         141.1270  139.9576  169.7335 C.3     1  UNL1        0.1315
     11 N         140.7054  140.4431  168.3782 N.3     1  UNL1       -0.2890
     12 H         140.6345  141.4606  168.3817 H       1  UNL1        0.1239
     13 C         140.3808  140.1695  171.0173 C.2     1  UNL1        0.2336
     14 N         139.5635  139.0561  171.6023 N.am    1  UNL1       -0.3277
     15 O         140.4521  141.4949  171.7162 O.2     1  UNL1       -0.2739
     16 H         139.5168  138.1863  171.1436 H       1  UNL1        0.1450
     17 H         139.0738  139.1952  172.4450 H       1  UNL1        0.1450
     18 C         143.1636  144.2329  164.1857 C.3     1  UNL1        0.2526
     19 O         143.0509  142.9976  163.3423 O.3     1  UNL1       -0.4684
     20 O         141.6584  141.0958  161.4865 O.3     1  UNL1       -0.4675
     21 C         140.6033  141.9885  160.9035 C.3     1  UNL1        0.2344
     22 C         139.6413  142.7016  161.8069 C.ar    1  UNL1        0.0486
     23 C         138.4521  141.9739  162.3602 C.ar    1  UNL1        0.0016
     24 C         137.4900  142.6869  163.2635 C.ar    1  UNL1       -0.0001
     25 C         137.7172  144.1277  163.6135 C.ar    1  UNL1        0.0023
     26 C         138.9063  144.8554  163.0601 C.ar    1  UNL1        0.0294
     27 C         139.8684  144.1424  162.1568 C.ar    1  UNL1        0.1396
     28 F         141.0576  144.8702  161.6035 F       1  UNL1       -0.2044
@<TRIPOS>BOND
     1    18    19    1
     2    19     1    1
     3     1     2   ar
     4     2     3   ar
     5     7     3    1
     6     7     8    1
     7     8     9    1
     8     9    10    1
     9    10    13    1
    10    13    14   am
    11    13    15    2
    12    10    11    1
    13     3     4   ar
    14     4     5   ar
    15     5     6   ar
    16     6    20    1
    17    20    21    1
    18    21    22    1
    19    22    23   ar
    20    23    24   ar
    21    24    25   ar
    22    25    26   ar
    23    26    27   ar
    24    27    28    1
    25     6     1   ar
    26    27    22   ar
    27    11     7    1
    28    14    16    1
    29    14    17    1
    30    11    12    1
