@<TRIPOS>MOLECULE
*****
 38 43 0 0 0
SMALL
GASTEIGER

@<TRIPOS>ATOM
      1 C         140.0216  139.3687  162.5207 C.ar    1  UNL1       -0.0077
      2 C         141.1922  138.8164  161.7627 C.ar    1  UNL1        0.0159
      3 C         141.1005  138.6227  160.2780 C.ar    1  UNL1        0.0854
      4 N         142.2711  138.0704  159.5200 N.ar    1  UNL1       -0.2136
      5 C         142.1794  137.8767  158.0354 C.ar    1  UNL1        0.2208
      6 N         140.9170  138.2353  157.3089 N.ar    1  UNL1       -0.2120
      7 C         139.7464  138.7876  158.0669 C.ar    1  UNL1        0.1033
      8 C         139.8381  138.9813  159.5514 C.ar    1  UNL1        0.0378
      9 C         138.6675  139.5336  160.3095 C.ar    1  UNL1        0.0141
     10 C         138.7592  139.7273  161.7941 C.ar    1  UNL1        0.0539
     11 CL        137.5886  140.2796  162.5522 Cl      1  UNL1       -0.0826
     12 N         140.2967  139.9499  166.9745 N.3     1  UNL1       -0.2674
     13 C         141.0635  140.8504  166.0519 C.3     1  UNL1        0.0727
     14 C         140.9717  140.6566  164.5673 C.3     1  UNL1        0.0245
     15 C         140.1133  139.5624  164.0053 C.3     1  UNL1        0.0586
     16 C         139.3466  138.6620  164.9280 C.3     1  UNL1        0.1808
     17 F         138.4881  137.5678  164.3660 F       1  UNL1       -0.2354
     18 C         139.4383  138.8557  166.4125 C.3     1  UNL1        0.1082
     19 O         142.9747  139.5596  168.7982 O.3     1  UNL1       -0.3804
     20 C         141.6194  139.9642  169.2974 C.3     1  UNL1        0.1569
     21 C         141.2570  140.2605  170.7224 C.3     1  UNL1        0.1727
     22 O         139.8020  140.6230  170.7650 O.3     1  UNL1       -0.3496
     23 C         139.2653  140.5508  169.3662 C.3     1  UNL1        0.1606
     24 C         140.3884  140.1437  168.4591 C.3     1  UNL1        0.1170
     25 H         143.5941  139.5164  169.5434 H       1  UNL1        0.2105
     26 N         143.3500  137.3244  157.2773 N.pl3   1  UNL1       -0.2794
     27 H         144.2240  137.7750  157.3247 H       1  UNL1        0.1552
     28 C         143.1889  136.0855  156.4472 C.ar    1  UNL1        0.1001
     29 C         142.8278  136.0401  154.9920 C.ar    1  UNL1        0.1372
     30 N         142.7763  134.6010  154.5719 N.ar    1  UNL1       -0.1654
     31 N         143.1056  133.7571  155.7674 N.ar    1  UNL1       -0.2353
     32 C         143.3606  134.6746  156.9264 C.ar    1  UNL1        0.1499
     33 CL        143.7236  134.2547  158.3199 Cl      1  UNL1       -0.0603
     34 C         143.1689  132.2587  155.7985 C.3     1  UNL1        0.1725
     35 C         142.4827  130.9275  155.7140 C.3     1  UNL1        0.0986
     36 C         143.9645  130.9947  155.9369 C.3     1  UNL1        0.2863
     37 F         144.2840  129.5308  156.0063 F       1  UNL1       -0.2022
     38 F         145.3354  131.5703  156.1358 F       1  UNL1       -0.2022
@<TRIPOS>BOND
     1    20    19    1
     2    20    21    1
     3    21    22    1
     4    22    23    1
     5    23    24    1
     6    24    12    1
     7    12    13    1
     8    13    14    1
     9    14    15    1
    10    15     1    1
    11     1     2   ar
    12     2     3   ar
    13     3     4   ar
    14     4     5   ar
    15     5    26    1
    16    26    28    1
    17    28    29   ar
    18    29    30   ar
    19    30    31   ar
    20    34    31    1
    21    34    35    1
    22    35    36    1
    23    36    37    1
    24    36    38    1
    25    31    32   ar
    26    32    33    1
    27     5     6   ar
    28     6     7   ar
    29     7     8   ar
    30     8     9   ar
    31     9    10   ar
    32    10    11    1
    33    15    16    1
    34    16    17    1
    35    16    18    1
    36    24    20    1
    37    18    12    1
    38    10     1   ar
    39     8     3   ar
    40    32    28   ar
    41    36    34    1
    42    19    25    1
    43    26    27    1
@<TRIPOS>MOLECULE
*****
 38 43 0 0 0
SMALL
GASTEIGER

@<TRIPOS>ATOM
      1 C         142.3204  139.6053  163.5307 C.ar    1  UNL1       -0.0077
      2 C         142.8650  140.6711  162.6266 C.ar    1  UNL1        0.0159
      3 C         143.1106  140.3718  161.1774 C.ar    1  UNL1        0.0854
      4 N         143.6551  141.4377  160.2733 N.ar    1  UNL1       -0.2136
      5 C         143.9007  141.1384  158.8242 C.ar    1  UNL1        0.2208
      6 N         143.6017  139.7733  158.2791 N.ar    1  UNL1       -0.2120
      7 C         143.0572  138.7074  159.1832 C.ar    1  UNL1        0.1033
      8 C         142.8116  139.0067  160.6323 C.ar    1  UNL1        0.0378
      9 C         142.2670  137.9409  161.5365 C.ar    1  UNL1        0.0141
     10 C         142.0214  138.2402  162.9857 C.ar    1  UNL1        0.0539
     11 CL        141.4769  137.1743  163.8899 Cl      1  UNL1       -0.0826
     12 N         141.5836  140.5031  167.8782 N.3     1  UNL1       -0.2674
     13 C         140.6509  141.0395  166.8331 C.3     1  UNL1        0.0727
     14 C         140.8965  140.7402  165.3840 C.3     1  UNL1        0.0245
     15 C         142.0748  139.9045  164.9800 C.3     1  UNL1        0.0586
     16 C         143.0075  139.3681  166.0251 C.3     1  UNL1        0.1808
     17 F         144.1858  138.5325  165.6211 F       1  UNL1       -0.2354
     18 C         142.7619  139.6674  167.4742 C.3     1  UNL1        0.1082
     19 O         142.8636  142.9839  169.5684 O.3     1  UNL1       -0.3804
     20 C         141.9263  141.9426  170.1043 C.3     1  UNL1        0.1569
     21 C         141.4129  141.8588  171.5112 C.3     1  UNL1        0.1727
     22 O         140.5071  140.6667  171.6039 O.3     1  UNL1       -0.3496
     23 C         140.4609  140.0138  170.2543 C.3     1  UNL1        0.1606
     24 C         141.3380  140.8023  169.3275 C.3     1  UNL1        0.1170
     25 H         143.0938  143.6065  170.2758 H       1  UNL1        0.2105
     26 N         144.4453  142.2042  157.9200 N.pl3   1  UNL1       -0.2794
     27 H         144.1780  143.1429  158.0489 H       1  UNL1        0.1552
     28 C         145.3971  141.8398  156.8194 C.ar    1  UNL1        0.1001
     29 C         145.0817  140.9846  155.6281 C.ar    1  UNL1        0.1372
     30 N         146.3212  140.8828  154.7894 N.ar    1  UNL1       -0.1654
     31 N         147.4026  141.6751  155.4623 N.ar    1  UNL1       -0.2353
     32 C         146.8315  142.2665  156.7169 C.ar    1  UNL1        0.1499
     33 CL        147.5659  143.1326  157.6970 Cl      1  UNL1       -0.0603
     34 C         148.8083  141.8459  154.9675 C.3     1  UNL1        0.1725
     35 C         150.2677  141.5120  155.0603 C.3     1  UNL1        0.0986
     36 C         149.7836  142.4757  154.0178 C.3     1  UNL1        0.2863
     37 F         151.0839  142.8113  153.3495 F       1  UNL1       -0.2022
     38 F         148.8479  143.3229  153.2073 F       1  UNL1       -0.2022
@<TRIPOS>BOND
     1    20    19    1
     2    20    21    1
     3    21    22    1
     4    22    23    1
     5    23    24    1
     6    24    12    1
     7    12    13    1
     8    13    14    1
     9    14    15    1
    10    15     1    1
    11     1     2   ar
    12     2     3   ar
    13     3     4   ar
    14     4     5   ar
    15     5    26    1
    16    26    28    1
    17    28    29   ar
    18    29    30   ar
    19    30    31   ar
    20    34    31    1
    21    34    35    1
    22    35    36    1
    23    36    37    1
    24    36    38    1
    25    31    32   ar
    26    32    33    1
    27     5     6   ar
    28     6     7   ar
    29     7     8   ar
    30     8     9   ar
    31     9    10   ar
    32    10    11    1
    33    15    16    1
    34    16    17    1
    35    16    18    1
    36    24    20    1
    37    18    12    1
    38    10     1   ar
    39     8     3   ar
    40    32    28   ar
    41    36    34    1
    42    19    25    1
    43    26    27    1
@<TRIPOS>MOLECULE
*****
 38 43 0 0 0
SMALL
GASTEIGER

@<TRIPOS>ATOM
      1 C         142.4333  142.9179  163.0976 C.ar    1  UNL1       -0.0077
      2 C         143.1780  141.9242  162.2563 C.ar    1  UNL1        0.0159
      3 C         143.3196  142.1482  160.7798 C.ar    1  UNL1        0.0854
      4 N         144.0644  141.1545  159.9385 N.ar    1  UNL1       -0.2136
      5 C         144.2060  141.3786  158.4621 C.ar    1  UNL1        0.2208
      6 N         143.6028  142.5964  157.8271 N.ar    1  UNL1       -0.2120
      7 C         142.8581  143.5901  158.6684 C.ar    1  UNL1        0.1033
      8 C         142.7165  143.3660  160.1448 C.ar    1  UNL1        0.0378
      9 C         141.9717  144.3598  160.9862 C.ar    1  UNL1        0.0141
     10 C         141.8301  144.1357  162.4625 C.ar    1  UNL1        0.0539
     11 CL        141.0854  145.1294  163.3039 Cl      1  UNL1       -0.0826
     12 N         142.0082  142.2458  167.5267 N.3     1  UNL1       -0.2674
     13 C         140.8061  142.1499  166.6349 C.3     1  UNL1        0.0727
     14 C         140.9477  142.3739  165.1585 C.3     1  UNL1        0.0245
     15 C         142.2916  142.6939  164.5740 C.3     1  UNL1        0.0586
     16 C         143.4938  142.7899  165.4659 C.3     1  UNL1        0.1808
     17 F         144.8377  143.1099  164.8814 F       1  UNL1       -0.2354
     18 C         143.3521  142.5658  166.9423 C.3     1  UNL1        0.1082
     19 O         142.9621  139.5889  169.1641 O.3     1  UNL1       -0.3804
     20 C         142.3050  140.8006  169.7557 C.3     1  UNL1        0.1569
     21 C         141.9711  141.0037  171.2039 C.3     1  UNL1        0.1727
     22 O         141.3262  142.3506  171.3464 O.3     1  UNL1       -0.3496
     23 C         141.2616  142.9797  169.9863 C.3     1  UNL1        0.1606
     24 C         141.8666  142.0218  169.0032 C.3     1  UNL1        0.1170
     25 H         143.1431  138.9441  169.8658 H       1  UNL1        0.2105
     26 N         144.9507  140.3848  157.6207 N.pl3   1  UNL1       -0.2794
     27 H         145.1241  139.4793  157.9660 H       1  UNL1        0.1552
     28 C         145.4313  140.7708  156.2532 C.ar    1  UNL1        0.1001
     29 C         144.9443  140.2008  154.9540 C.ar    1  UNL1        0.1372
     30 N         145.6953  140.8723  153.8427 N.ar    1  UNL1       -0.1654
     31 N         146.6466  141.8573  154.4550 N.ar    1  UNL1       -0.2353
     32 C         146.4834  141.7945  155.9448 C.ar    1  UNL1        0.1499
     33 CL        147.2396  142.6121  156.9497 Cl      1  UNL1       -0.0603
     34 C         147.5945  142.7485  153.7086 C.3     1  UNL1        0.1725
     35 C         147.8438  143.7907  152.6589 C.3     1  UNL1        0.0986
     36 C         148.9871  143.2500  153.4655 C.3     1  UNL1        0.2863
     37 F         150.1192  144.0339  152.8705 F       1  UNL1       -0.2022
     38 F         149.7373  142.4372  154.4787 F       1  UNL1       -0.2022
@<TRIPOS>BOND
     1    20    19    1
     2    20    21    1
     3    21    22    1
     4    22    23    1
     5    23    24    1
     6    24    12    1
     7    12    13    1
     8    13    14    1
     9    14    15    1
    10    15     1    1
    11     1     2   ar
    12     2     3   ar
    13     3     4   ar
    14     4     5   ar
    15     5    26    1
    16    26    28    1
    17    28    29   ar
    18    29    30   ar
    19    30    31   ar
    20    34    31    1
    21    34    35    1
    22    35    36    1
    23    36    37    1
    24    36    38    1
    25    31    32   ar
    26    32    33    1
    27     5     6   ar
    28     6     7   ar
    29     7     8   ar
    30     8     9   ar
    31     9    10   ar
    32    10    11    1
    33    15    16    1
    34    16    17    1
    35    16    18    1
    36    24    20    1
    37    18    12    1
    38    10     1   ar
    39     8     3   ar
    40    32    28   ar
    41    36    34    1
    42    19    25    1
    43    26    27    1
@<TRIPOS>MOLECULE
*****
 38 43 0 0 0
SMALL
GASTEIGER

@<TRIPOS>ATOM
      1 C         141.4475  143.0185  163.3354 C.ar    1  UNL1       -0.0077
      2 C         141.0744  141.9154  162.3900 C.ar    1  UNL1        0.0159
      3 C         141.0713  142.1643  160.9108 C.ar    1  UNL1        0.0854
      4 N         140.6982  141.0612  159.9654 N.ar    1  UNL1       -0.2136
      5 C         140.6952  141.3102  158.4862 C.ar    1  UNL1        0.2208
      6 N         141.0653  142.6623  157.9525 N.ar    1  UNL1       -0.2120
      7 C         141.4385  143.7654  158.8979 C.ar    1  UNL1        0.1033
      8 C         141.4415  143.5164  160.3770 C.ar    1  UNL1        0.0378
      9 C         141.8147  144.6196  161.3225 C.ar    1  UNL1        0.0141
     10 C         141.8177  144.3706  162.8017 C.ar    1  UNL1        0.0539
     11 CL        142.1909  145.4737  163.7472 Cl      1  UNL1       -0.0826
     12 N         141.4567  142.2717  167.7730 N.3     1  UNL1       -0.2674
     13 C         142.6928  142.0073  166.9655 C.3     1  UNL1        0.0727
     14 C         142.6897  142.2563  165.4863 C.3     1  UNL1        0.0245
     15 C         141.4506  142.7696  164.8147 C.3     1  UNL1        0.0586
     16 C         140.2145  143.0339  165.6223 C.3     1  UNL1        0.1808
     17 F         138.9754  143.5472  164.9507 F       1  UNL1       -0.2354
     18 C         140.2176  142.7850  167.1014 C.3     1  UNL1        0.1082
     19 O         140.0301  139.7647  169.2993 O.3     1  UNL1       -0.3804
     20 C         140.8040  140.8704  169.9538 C.3     1  UNL1        0.1569
     21 C         141.0581  141.0180  171.4247 C.3     1  UNL1        0.1727
     22 O         141.8709  142.2615  171.6323 O.3     1  UNL1       -0.3496
     23 C         142.1191  142.8825  170.2897 C.3     1  UNL1        0.1606
     24 C         141.4598  142.0227  169.2523 C.3     1  UNL1        0.1170
     25 H         139.7119  139.1478  169.9768 H       1  UNL1        0.2105
     26 N         140.3220  140.2071  157.5407 N.pl3   1  UNL1       -0.2794
     27 H         139.4655  140.2424  157.0566 H       1  UNL1        0.1552
     28 C         141.2538  139.0502  157.3329 C.ar    1  UNL1        0.1001
     29 C         142.7294  139.0471  157.6023 C.ar    1  UNL1        0.1372
     30 N         143.2612  137.6882  157.2551 N.ar    1  UNL1       -0.1654
     31 N         142.1143  136.8514  156.7710 N.ar    1  UNL1       -0.2353
     32 C         140.8737  137.6931  156.8191 C.ar    1  UNL1        0.1499
     33 CL        139.4950  137.2547  156.4230 Cl      1  UNL1       -0.0603
     34 C         142.1940  135.4236  156.3184 C.3     1  UNL1        0.1725
     35 C         141.7338  134.3205  155.4119 C.3     1  UNL1        0.0986
     36 C         142.7922  134.0535  156.4407 C.3     1  UNL1        0.2863
     37 F         143.0545  132.6009  156.1735 F       1  UNL1       -0.2022
     38 F         143.7596  134.2909  157.5623 F       1  UNL1       -0.2022
@<TRIPOS>BOND
     1    20    19    1
     2    20    21    1
     3    21    22    1
     4    22    23    1
     5    23    24    1
     6    24    12    1
     7    12    13    1
     8    13    14    1
     9    14    15    1
    10    15     1    1
    11     1     2   ar
    12     2     3   ar
    13     3     4   ar
    14     4     5   ar
    15     5    26    1
    16    26    28    1
    17    28    29   ar
    18    29    30   ar
    19    30    31   ar
    20    34    31    1
    21    34    35    1
    22    35    36    1
    23    36    37    1
    24    36    38    1
    25    31    32   ar
    26    32    33    1
    27     5     6   ar
    28     6     7   ar
    29     7     8   ar
    30     8     9   ar
    31     9    10   ar
    32    10    11    1
    33    15    16    1
    34    16    17    1
    35    16    18    1
    36    24    20    1
    37    18    12    1
    38    10     1   ar
    39     8     3   ar
    40    32    28   ar
    41    36    34    1
    42    19    25    1
    43    26    27    1
@<TRIPOS>MOLECULE
*****
 38 43 0 0 0
SMALL
GASTEIGER

@<TRIPOS>ATOM
      1 C         141.0231  140.4185  157.8964 C.ar    1  UNL1       -0.0077
      2 C         140.4919  140.6602  159.2782 C.ar    1  UNL1        0.0159
      3 C         140.2045  142.0591  159.7372 C.ar    1  UNL1        0.0854
      4 N         139.6733  142.3008  161.1190 N.ar    1  UNL1       -0.2136
      5 C         139.3860  143.6996  161.5779 C.ar    1  UNL1        0.2208
      6 N         139.6300  144.8568  160.6551 N.ar    1  UNL1       -0.2120
      7 C         140.1612  144.6150  159.2734 C.ar    1  UNL1        0.1033
      8 C         140.4485  143.2162  158.8144 C.ar    1  UNL1        0.0378
      9 C         140.9798  142.9744  157.4326 C.ar    1  UNL1        0.0141
     10 C         141.2671  141.5756  156.9736 C.ar    1  UNL1        0.0539
     11 CL        141.7984  141.3338  155.5918 Cl      1  UNL1       -0.0826
     12 N         141.8850  136.2220  156.5194 N.3     1  UNL1       -0.2674
     13 C         140.5661  136.8604  156.1989 C.3     1  UNL1        0.0727
     14 C         140.2788  138.2592  156.6580 C.3     1  UNL1        0.0245
     15 C         141.3105  139.0196  157.4374 C.3     1  UNL1        0.0586
     16 C         142.6294  138.3811  157.7579 C.3     1  UNL1        0.1808
     17 F         143.6610  139.1415  158.5373 F       1  UNL1       -0.2354
     18 C         142.9166  136.9823  157.2988 C.3     1  UNL1        0.1082
     19 O         143.4461  133.9238  158.2315 O.3     1  UNL1       -0.3804
     20 C         142.8899  133.7668  156.8473 C.3     1  UNL1        0.1569
     21 C         142.9535  132.5258  156.0071 C.3     1  UNL1        0.1727
     22 O         142.2753  132.8151  154.7008 O.3     1  UNL1       -0.3496
     23 C         141.7925  134.2349  154.7338 C.3     1  UNL1        0.1606
     24 C         142.1723  134.8231  156.0604 C.3     1  UNL1        0.1170
     25 H         143.8604  133.0920  158.5098 H       1  UNL1        0.2105
     26 N         138.8547  143.9414  162.9597 N.pl3   1  UNL1       -0.2794
     27 H         138.3527  144.7650  163.1570 H       1  UNL1        0.1552
     28 C         139.0883  142.9283  164.0409 C.ar    1  UNL1        0.1001
     29 C         140.0880  143.0408  165.1536 C.ar    1  UNL1        0.1372
     30 N         139.9808  141.8069  165.9997 N.ar    1  UNL1       -0.1654
     31 N         138.9148  140.9317  165.4100 N.ar    1  UNL1       -0.2353
     32 C         138.3632  141.6248  164.1994 C.ar    1  UNL1        0.1499
     33 CL        137.2772  141.1055  163.3045 Cl      1  UNL1       -0.0603
     34 C         138.4772  139.5977  165.9380 C.3     1  UNL1        0.1725
     35 C         137.8218  138.7755  167.0079 C.3     1  UNL1        0.0986
     36 C         138.3746  138.1093  165.7829 C.3     1  UNL1        0.2863
     37 F         138.0396  136.6798  166.0903 F       1  UNL1       -0.2022
     38 F         139.0437  137.9395  164.4512 F       1  UNL1       -0.2022
@<TRIPOS>BOND
     1    20    19    1
     2    20    21    1
     3    21    22    1
     4    22    23    1
     5    23    24    1
     6    24    12    1
     7    12    13    1
     8    13    14    1
     9    14    15    1
    10    15     1    1
    11     1     2   ar
    12     2     3   ar
    13     3     4   ar
    14     4     5   ar
    15     5    26    1
    16    26    28    1
    17    28    29   ar
    18    29    30   ar
    19    30    31   ar
    20    34    31    1
    21    34    35    1
    22    35    36    1
    23    36    37    1
    24    36    38    1
    25    31    32   ar
    26    32    33    1
    27     5     6   ar
    28     6     7   ar
    29     7     8   ar
    30     8     9   ar
    31     9    10   ar
    32    10    11    1
    33    15    16    1
    34    16    17    1
    35    16    18    1
    36    24    20    1
    37    18    12    1
    38    10     1   ar
    39     8     3   ar
    40    32    28   ar
    41    36    34    1
    42    19    25    1
    43    26    27    1
@<TRIPOS>MOLECULE
*****
 38 43 0 0 0
SMALL
GASTEIGER

@<TRIPOS>ATOM
      1 C         141.1947  139.4261  157.0235 C.ar    1  UNL1       -0.0077
      2 C         140.3197  139.7177  158.2064 C.ar    1  UNL1        0.0159
      3 C         140.0379  141.1378  158.5990 C.ar    1  UNL1        0.0854
      4 N         139.1629  141.4293  159.7819 N.ar    1  UNL1       -0.2136
      5 C         138.8812  142.8494  160.1744 C.ar    1  UNL1        0.2208
      6 N         139.4745  143.9778  159.3841 N.ar    1  UNL1       -0.2120
      7 C         140.3495  143.6862  158.2012 C.ar    1  UNL1        0.1033
      8 C         140.6313  142.2662  157.8087 C.ar    1  UNL1        0.0378
      9 C         141.5063  141.9746  156.6257 C.ar    1  UNL1        0.0141
     10 C         141.7881  140.5546  156.2332 C.ar    1  UNL1        0.0539
     11 CL        142.6631  140.2629  155.0502 Cl      1  UNL1       -0.0826
     12 N         142.0401  135.1660  155.8457 N.3     1  UNL1       -0.2674
     13 C         142.9354  135.8651  156.8253 C.3     1  UNL1        0.0727
     14 C         142.6536  137.2851  157.2179 C.3     1  UNL1        0.0245
     15 C         141.4765  138.0060  156.6309 C.3     1  UNL1        0.0586
     16 C         140.5812  137.3070  155.6513 C.3     1  UNL1        0.1808
     17 F         139.4041  138.0280  155.0642 F       1  UNL1       -0.2354
     18 C         140.8630  135.8870  155.2587 C.3     1  UNL1        0.1082
     19 O         142.8914  132.7497  157.8673 O.3     1  UNL1       -0.3804
     20 C         142.7131  132.6354  156.3823 C.3     1  UNL1        0.1569
     21 C         142.8949  131.3903  155.5658 C.3     1  UNL1        0.1727
     22 O         142.6159  131.7313  154.1320 O.3     1  UNL1       -0.3496
     23 C         142.2618  133.1872  154.0623 C.3     1  UNL1        0.1606
     24 C         142.3219  133.7460  155.4531 C.3     1  UNL1        0.1170
     25 H         143.1457  131.8867  158.2298 H       1  UNL1        0.2105
     26 N         138.0061  143.1410  161.3573 N.pl3   1  UNL1       -0.2794
     27 H         137.2365  143.7475  161.2627 H       1  UNL1        0.1552
     28 C         138.3037  142.5084  162.6845 C.ar    1  UNL1        0.1001
     29 C         138.9488  143.1838  163.8583 C.ar    1  UNL1        0.1372
     30 N         139.0523  142.1823  164.9701 N.ar    1  UNL1       -0.1654
     31 N         138.4712  140.8878  164.4835 N.ar    1  UNL1       -0.2353
     32 C         138.0086  141.0894  163.0709 C.ar    1  UNL1        0.1499
     33 CL        137.3640  140.0538  162.1980 Cl      1  UNL1       -0.0603
     34 C         138.3705  139.6152  165.2711 C.3     1  UNL1        0.1725
     35 C         138.0631  138.9030  166.5549 C.3     1  UNL1        0.0986
     36 C         138.5033  138.1233  165.3514 C.3     1  UNL1        0.2863
     37 F         138.4805  136.7347  165.9182 F       1  UNL1       -0.2022
     38 F         138.9514  137.8259  163.9511 F       1  UNL1       -0.2022
@<TRIPOS>BOND
     1    20    19    1
     2    20    21    1
     3    21    22    1
     4    22    23    1
     5    23    24    1
     6    24    12    1
     7    12    13    1
     8    13    14    1
     9    14    15    1
    10    15     1    1
    11     1     2   ar
    12     2     3   ar
    13     3     4   ar
    14     4     5   ar
    15     5    26    1
    16    26    28    1
    17    28    29   ar
    18    29    30   ar
    19    30    31   ar
    20    34    31    1
    21    34    35    1
    22    35    36    1
    23    36    37    1
    24    36    38    1
    25    31    32   ar
    26    32    33    1
    27     5     6   ar
    28     6     7   ar
    29     7     8   ar
    30     8     9   ar
    31     9    10   ar
    32    10    11    1
    33    15    16    1
    34    16    17    1
    35    16    18    1
    36    24    20    1
    37    18    12    1
    38    10     1   ar
    39     8     3   ar
    40    32    28   ar
    41    36    34    1
    42    19    25    1
    43    26    27    1
@<TRIPOS>MOLECULE
*****
 38 43 0 0 0
SMALL
GASTEIGER

@<TRIPOS>ATOM
      1 C         141.6664  143.5116  162.9978 C.ar    1  UNL1       -0.0077
      2 C         142.4107  143.0670  161.7738 C.ar    1  UNL1        0.0159
      3 C         142.1731  143.7531  160.4611 C.ar    1  UNL1        0.0854
      4 N         142.9174  143.3085  159.2370 N.ar    1  UNL1       -0.2136
      5 C         142.6797  143.9946  157.9244 C.ar    1  UNL1        0.2208
      6 N         141.6979  145.1251  157.8360 N.ar    1  UNL1       -0.2120
      7 C         140.9536  145.5696  159.0600 C.ar    1  UNL1        0.1033
      8 C         141.1912  144.8836  160.3726 C.ar    1  UNL1        0.0378
      9 C         140.4470  145.3281  161.5968 C.ar    1  UNL1        0.0141
     10 C         140.6846  144.6421  162.9094 C.ar    1  UNL1        0.0539
     11 CL        139.9403  145.0866  164.1335 Cl      1  UNL1       -0.0826
     12 N         142.3791  141.4535  166.9357 N.3     1  UNL1       -0.2674
     13 C         141.1555  141.1296  166.1308 C.3     1  UNL1        0.0727
     14 C         140.9180  141.8156  164.8182 C.3     1  UNL1        0.0245
     15 C         141.9040  142.8255  164.3105 C.3     1  UNL1        0.0586
     16 C         143.1276  143.1494  165.1154 C.3     1  UNL1        0.1808
     17 F         144.1137  144.1593  164.6076 F       1  UNL1       -0.2354
     18 C         143.3652  142.4634  166.4279 C.3     1  UNL1        0.1082
     19 O         143.1214  142.9153  169.7574 O.3     1  UNL1       -0.3804
     20 C         142.9579  141.4394  169.5453 C.3     1  UNL1        0.1569
     21 C         143.1069  140.3763  170.5929 C.3     1  UNL1        0.1727
     22 O         142.8577  139.0473  169.9435 O.3     1  UNL1       -0.3496
     23 C         142.5548  139.2891  168.4944 C.3     1  UNL1        0.1606
     24 C         142.6167  140.7675  168.2483 C.3     1  UNL1        0.1170
     25 H         143.3414  143.0860  170.6866 H       1  UNL1        0.2105
     26 N         143.4240  143.5500  156.7003 N.pl3   1  UNL1       -0.2794
     27 H         143.6018  144.1894  155.9730 H       1  UNL1        0.1552
     28 C         143.8974  142.1314  156.5842 C.ar    1  UNL1        0.1001
     29 C         145.3262  141.6750  156.5945 C.ar    1  UNL1        0.1372
     30 N         145.3369  140.1817  156.4541 N.ar    1  UNL1       -0.1654
     31 N         143.9146  139.7151  156.3570 N.ar    1  UNL1       -0.2353
     32 C         143.0250  140.9201  156.4373 C.ar    1  UNL1        0.1499
     33 CL        141.5260  140.9146  156.3808 Cl      1  UNL1       -0.0603
     34 C         143.4616  138.2931  156.2059 C.3     1  UNL1        0.1725
     35 C         143.5307  136.9768  155.4900 C.3     1  UNL1        0.0986
     36 C         142.6077  137.1466  156.6602 C.3     1  UNL1        0.2863
     37 F         142.0013  135.7757  156.7146 F       1  UNL1       -0.2022
     38 F         141.8953  137.7925  157.8114 F       1  UNL1       -0.2022
@<TRIPOS>BOND
     1    20    19    1
     2    20    21    1
     3    21    22    1
     4    22    23    1
     5    23    24    1
     6    24    12    1
     7    12    13    1
     8    13    14    1
     9    14    15    1
    10    15     1    1
    11     1     2   ar
    12     2     3   ar
    13     3     4   ar
    14     4     5   ar
    15     5    26    1
    16    26    28    1
    17    28    29   ar
    18    29    30   ar
    19    30    31   ar
    20    34    31    1
    21    34    35    1
    22    35    36    1
    23    36    37    1
    24    36    38    1
    25    31    32   ar
    26    32    33    1
    27     5     6   ar
    28     6     7   ar
    29     7     8   ar
    30     8     9   ar
    31     9    10   ar
    32    10    11    1
    33    15    16    1
    34    16    17    1
    35    16    18    1
    36    24    20    1
    37    18    12    1
    38    10     1   ar
    39     8     3   ar
    40    32    28   ar
    41    36    34    1
    42    19    25    1
    43    26    27    1
@<TRIPOS>MOLECULE
*****
 38 43 0 0 0
SMALL
GASTEIGER

@<TRIPOS>ATOM
      1 C         142.2089  139.3020  163.6107 C.ar    1  UNL1       -0.0077
      2 C         142.8685  140.2647  162.6682 C.ar    1  UNL1        0.0159
      3 C         143.0715  139.8870  161.2308 C.ar    1  UNL1        0.0854
      4 N         143.7310  140.8497  160.2883 N.ar    1  UNL1       -0.2136
      5 C         143.9340  140.4720  158.8510 C.ar    1  UNL1        0.2208
      6 N         143.4773  139.1317  158.3560 N.ar    1  UNL1       -0.2120
      7 C         142.8178  138.1690  159.2984 C.ar    1  UNL1        0.1033
      8 C         142.6148  138.5467  160.7358 C.ar    1  UNL1        0.0378
      9 C         141.9552  137.5840  161.6783 C.ar    1  UNL1        0.0141
     10 C         141.7523  137.9617  163.1157 C.ar    1  UNL1        0.0539
     11 CL        141.0927  136.9990  164.0582 Cl      1  UNL1       -0.0826
     12 N         141.5999  140.4350  167.9229 N.3     1  UNL1       -0.2674
     13 C         140.6308  140.9063  166.8796 C.3     1  UNL1        0.0727
     14 C         140.8338  140.5286  165.4422 C.3     1  UNL1        0.0245
     15 C         142.0059  139.6797  165.0481 C.3     1  UNL1        0.0586
     16 C         142.9751  139.2084  166.0914 C.3     1  UNL1        0.1808
     17 F         144.1473  138.3594  165.6974 F       1  UNL1       -0.2354
     18 C         142.7721  139.5860  167.5288 C.3     1  UNL1        0.1082
     19 O         143.1027  142.8660  169.4982 O.3     1  UNL1       -0.3804
     20 C         142.0877  141.9300  170.0844 C.3     1  UNL1        0.1569
     21 C         141.5852  141.9471  171.4976 C.3     1  UNL1        0.1727
     22 O         140.5839  140.8403  171.6471 O.3     1  UNL1       -0.3496
     23 C         140.4676  140.1391  170.3261 C.3     1  UNL1        0.1606
     24 C         141.3970  140.8126  169.3604 C.3     1  UNL1        0.1170
     25 H         143.3924  143.4953  170.1772 H       1  UNL1        0.2105
     26 N         144.5936  141.4347  157.9084 N.pl3   1  UNL1       -0.2794
     27 H         145.5758  141.4841  157.8628 H       1  UNL1        0.1552
     28 C         143.7566  142.3221  157.0355 C.ar    1  UNL1        0.1001
     29 C         143.6120  142.2115  155.5466 C.ar    1  UNL1        0.1372
     30 N         142.6833  143.2970  155.0891 N.ar    1  UNL1       -0.1654
     31 N         142.2540  144.0786  156.2953 N.ar    1  UNL1       -0.2353
     32 C         142.9174  143.4761  157.4982 C.ar    1  UNL1        0.1499
     33 CL        142.7677  143.9452  158.9151 Cl      1  UNL1       -0.0603
     34 C         141.3246  145.2559  156.2981 C.3     1  UNL1        0.1725
     35 C         140.7580  146.4653  155.6151 C.3     1  UNL1        0.0986
     36 C         140.2815  146.0859  156.9859 C.3     1  UNL1        0.2863
     37 F         139.2834  147.1795  157.2267 F       1  UNL1       -0.2022
     38 F         140.1516  145.3266  158.2731 F       1  UNL1       -0.2022
@<TRIPOS>BOND
     1    20    19    1
     2    20    21    1
     3    21    22    1
     4    22    23    1
     5    23    24    1
     6    24    12    1
     7    12    13    1
     8    13    14    1
     9    14    15    1
    10    15     1    1
    11     1     2   ar
    12     2     3   ar
    13     3     4   ar
    14     4     5   ar
    15     5    26    1
    16    26    28    1
    17    28    29   ar
    18    29    30   ar
    19    30    31   ar
    20    34    31    1
    21    34    35    1
    22    35    36    1
    23    36    37    1
    24    36    38    1
    25    31    32   ar
    26    32    33    1
    27     5     6   ar
    28     6     7   ar
    29     7     8   ar
    30     8     9   ar
    31     9    10   ar
    32    10    11    1
    33    15    16    1
    34    16    17    1
    35    16    18    1
    36    24    20    1
    37    18    12    1
    38    10     1   ar
    39     8     3   ar
    40    32    28   ar
    41    36    34    1
    42    19    25    1
    43    26    27    1
@<TRIPOS>MOLECULE
*****
 38 43 0 0 0
SMALL
GASTEIGER

@<TRIPOS>ATOM
      1 C         139.2523  142.7295  157.8682 C.ar    1  UNL1       -0.0077
      2 C         138.6998  142.8647  159.2561 C.ar    1  UNL1        0.0159
      3 C         138.5242  141.6476  160.1153 C.ar    1  UNL1        0.0854
      4 N         137.9717  141.7827  161.5032 N.ar    1  UNL1       -0.2136
      5 C         137.7961  140.5658  162.3623 C.ar    1  UNL1        0.2208
      6 N         138.1730  139.2136  161.8334 N.ar    1  UNL1       -0.2120
      7 C         138.7255  139.0785  160.4455 C.ar    1  UNL1        0.1033
      8 C         138.9011  140.2955  159.5864 C.ar    1  UNL1        0.0378
      9 C         139.4536  140.1604  158.1984 C.ar    1  UNL1        0.0141
     10 C         139.6292  141.3774  157.3393 C.ar    1  UNL1        0.0539
     11 CL        140.1817  141.2423  155.9513 Cl      1  UNL1       -0.0826
     12 N         139.7792  146.3805  155.2909 N.3     1  UNL1       -0.2674
     13 C         140.8393  146.0033  156.2828 C.3     1  UNL1        0.0727
     14 C         140.6636  144.7864  157.1418 C.3     1  UNL1        0.0245
     15 C         139.4279  143.9466  157.0090 C.3     1  UNL1        0.0586
     16 C         138.3678  144.3237  156.0172 C.3     1  UNL1        0.1808
     17 F         137.1320  143.4839  155.8844 F       1  UNL1       -0.2354
     18 C         138.5434  145.5407  155.1581 C.3     1  UNL1        0.1082
     19 O         138.3666  149.2838  155.7655 O.3     1  UNL1       -0.3804
     20 C         139.3055  148.9320  154.6499 C.3     1  UNL1        0.1569
     21 C         139.7599  149.8529  153.5566 C.3     1  UNL1        0.1727
     22 O         140.6902  149.0876  152.6626 O.3     1  UNL1       -0.3496
     23 C         140.8105  147.6937  153.2035 C.3     1  UNL1        0.1606
     24 C         139.9548  147.5975  154.4317 C.3     1  UNL1        0.1170
     25 H         138.0908  150.2095  155.6762 H       1  UNL1        0.2105
     26 N         137.2436  140.7008  163.7504 N.pl3   1  UNL1       -0.2794
     27 H         136.2849  140.8811  163.8832 H       1  UNL1        0.1552
     28 C         138.1518  140.5612  164.9360 C.ar    1  UNL1        0.1001
     29 C         138.2417  139.3694  165.8423 C.ar    1  UNL1        0.1372
     30 N         139.2750  139.6605  166.8899 N.ar    1  UNL1       -0.1654
     31 N         139.8238  141.0323  166.6310 N.ar    1  UNL1       -0.2353
     32 C         139.1296  141.5890  165.4235 C.ar    1  UNL1        0.1499
     33 CL        139.3708  142.9368  164.8109 Cl      1  UNL1       -0.0603
     34 C         140.8811  141.7257  167.4380 C.3     1  UNL1        0.1725
     35 C         142.3200  142.0904  167.6541 C.3     1  UNL1        0.0986
     36 C         141.2736  142.5621  168.6198 C.3     1  UNL1        0.2863
     37 F         142.1331  143.3268  169.5822 F       1  UNL1       -0.2022
     38 F         139.9286  142.7681  169.2512 F       1  UNL1       -0.2022
@<TRIPOS>BOND
     1    20    19    1
     2    20    21    1
     3    21    22    1
     4    22    23    1
     5    23    24    1
     6    24    12    1
     7    12    13    1
     8    13    14    1
     9    14    15    1
    10    15     1    1
    11     1     2   ar
    12     2     3   ar
    13     3     4   ar
    14     4     5   ar
    15     5    26    1
    16    26    28    1
    17    28    29   ar
    18    29    30   ar
    19    30    31   ar
    20    34    31    1
    21    34    35    1
    22    35    36    1
    23    36    37    1
    24    36    38    1
    25    31    32   ar
    26    32    33    1
    27     5     6   ar
    28     6     7   ar
    29     7     8   ar
    30     8     9   ar
    31     9    10   ar
    32    10    11    1
    33    15    16    1
    34    16    17    1
    35    16    18    1
    36    24    20    1
    37    18    12    1
    38    10     1   ar
    39     8     3   ar
    40    32    28   ar
    41    36    34    1
    42    19    25    1
    43    26    27    1
