@<TRIPOS>MOLECULE
*****
 37 41 0 0 0
SMALL
GASTEIGER

@<TRIPOS>ATOM
      1 C         142.1769  141.4346  162.7257 C.3     1  UNL1        0.2777
      2 O         142.9531  142.4464  163.5156 O.3     1  UNL1       -0.4230
      3 C         143.2615  141.8500  164.8568 C.2     1  UNL1        0.4117
      4 O         144.0219  142.5169  165.9645 O.2     1  UNL1       -0.2257
      5 N         142.6760  140.4696  164.8960 N.am    1  UNL1       -0.1902
      6 C         142.0057  140.2128  163.5789 C.2     1  UNL1        0.2797
      7 O         141.2898  138.9551  163.1842 O.2     1  UNL1       -0.2700
      8 C         140.8496  139.2578  159.7991 C.ar    1  UNL1        0.2499
      9 N         139.5733  139.5950  160.5115 N.ar    1  UNL1       -0.1071
     10 N         139.9152  140.4515  161.6946 N.ar    1  UNL1       -0.1072
     11 C         141.4028  140.6436  161.7133 C.ar    1  UNL1        0.2714
     12 O         141.9802  139.9059  160.5418 O.2     1  UNL1       -0.4156
     13 C         139.8719  137.2185  156.5379 C.ar    1  UNL1        0.1419
     14 C         141.2209  136.7435  156.0856 C.ar    1  UNL1        0.0738
     15 C         142.4461  137.1066  156.8711 C.ar    1  UNL1        0.1419
     16 C         142.3224  137.9447  158.1089 C.ar    1  UNL1        0.0418
     17 C         140.9734  138.4197  158.5612 C.ar    1  UNL1        0.0611
     18 C         139.7482  138.0566  157.7757 C.ar    1  UNL1        0.0418
     19 C         138.1948  137.7301  154.6208 C.3     1  UNL1        0.2525
     20 O         138.6467  136.8554  155.7524 O.3     1  UNL1       -0.4713
     21 O         143.7951  136.6316  156.4187 O.3     1  UNL1       -0.4713
     22 C         143.9015  135.5459  155.3892 C.3     1  UNL1        0.2525
     23 C         142.7481  139.5136  166.0497 C.3     1  UNL1        0.1082
     24 C         143.7308  138.3807  166.0247 C.3     1  UNL1        0.0270
     25 C         141.8375  139.6907  167.2285 C.ar    1  UNL1       -0.0038
     26 C         140.3739  139.9399  167.0147 C.ar    1  UNL1       -0.0027
     27 C         139.4632  140.1170  168.1934 C.ar    1  UNL1       -0.0003
     28 C         140.0163  140.0448  169.5859 C.ar    1  UNL1       -0.0000
     29 C         141.4798  139.7957  169.7997 C.ar    1  UNL1       -0.0003
     30 C         142.3906  139.6186  168.6209 C.ar    1  UNL1       -0.0027
     31 C         142.1863  142.4910  161.6609 C.3     1  UNL1        0.0849
     32 C         141.2620  143.6679  161.7638 C.ar    1  UNL1       -0.0177
     33 C         141.1708  144.6510  160.6346 C.ar    1  UNL1       -0.0041
     34 C         140.2465  145.8279  160.7376 C.ar    1  UNL1       -0.0003
     35 C         139.4133  146.0216  161.9697 C.ar    1  UNL1       -0.0000
     36 C         139.5045  145.0385  163.0989 C.ar    1  UNL1       -0.0003
     37 C         140.4288  143.8616  162.9960 C.ar    1  UNL1       -0.0041
@<TRIPOS>BOND
     1    19    20    1
     2    20    13    1
     3    13    14   ar
     4    14    15   ar
     5    15    21    1
     6    21    22    1
     7    15    16   ar
     8    16    17   ar
     9    17     8    1
    10     8     9   ar
    11     9    10   ar
    12    10    11   ar
    13    11     1    1
    14     1    31    1
    15    31    32    1
    16    32    33   ar
    17    33    34   ar
    18    34    35   ar
    19    35    36   ar
    20    36    37   ar
    21     1     2    1
    22     2     3    1
    23     3     4    2
    24     3     5   am
    25     5    23    1
    26    23    24    1
    27    23    25    1
    28    25    26   ar
    29    26    27   ar
    30    27    28   ar
    31    28    29   ar
    32    29    30   ar
    33     5     6   am
    34     6     7    2
    35    11    12   ar
    36    17    18   ar
    37    18    13   ar
    38    12     8   ar
    39     6     1    1
    40    37    32   ar
    41    30    25   ar
@<TRIPOS>MOLECULE
*****
 37 41 0 0 0
SMALL
GASTEIGER

@<TRIPOS>ATOM
      1 C         143.9085  140.5560  162.0070 C.3     1  UNL1        0.2777
      2 O         144.4313  141.0892  160.7062 O.3     1  UNL1       -0.4230
      3 C         143.5856  140.5281  159.6018 C.2     1  UNL1        0.4117
      4 O         143.7555  140.7994  158.1364 O.2     1  UNL1       -0.2257
      5 N         142.5400  139.6481  160.2200 N.am    1  UNL1       -0.1902
      6 C         142.7396  139.6653  161.7066 C.2     1  UNL1        0.2797
      7 O         141.9150  138.9223  162.7156 O.2     1  UNL1       -0.2700
      8 C         142.5910  140.1124  165.6310 C.ar    1  UNL1        0.2499
      9 N         143.7474  139.1570  165.6240 N.ar    1  UNL1       -0.1071
     10 N         144.3817  139.2068  164.2656 N.ar    1  UNL1       -0.1072
     11 C         143.6173  140.1931  163.4331 C.ar    1  UNL1        0.2714
     12 O         142.5106  140.7527  164.2769 O.2     1  UNL1       -0.4156
     13 C         141.1439  141.6578  168.9877 C.ar    1  UNL1        0.1419
     14 C         139.8452  140.9163  169.1043 C.ar    1  UNL1        0.0738
     15 C         139.4618  139.9068  168.0632 C.ar    1  UNL1        0.1419
     16 C         140.3771  139.6388  166.9054 C.ar    1  UNL1        0.0418
     17 C         141.6757  140.3803  166.7888 C.ar    1  UNL1        0.0611
     18 C         142.0591  141.3898  167.8299 C.ar    1  UNL1        0.0418
     19 C         142.9747  142.9249  170.3265 C.3     1  UNL1        0.2525
     20 O         141.5273  142.6672  170.0288 O.3     1  UNL1       -0.4713
     21 O         138.1631  139.1653  168.1799 O.3     1  UNL1       -0.4713
     22 C         137.6269  138.4023  167.0050 C.3     1  UNL1        0.2525
     23 C         141.4808  138.8849  159.4815 C.3     1  UNL1        0.1082
     24 C         141.8689  137.9062  158.4130 C.3     1  UNL1        0.0270
     25 C         140.0334  139.1003  159.8114 C.ar    1  UNL1       -0.0038
     26 C         139.2426  140.1394  159.0733 C.ar    1  UNL1       -0.0027
     27 C         137.7953  140.3549  159.4031 C.ar    1  UNL1       -0.0003
     28 C         137.1388  139.5311  160.4710 C.ar    1  UNL1       -0.0000
     29 C         137.9296  138.4920  161.2091 C.ar    1  UNL1       -0.0003
     30 C         139.3770  138.2765  160.8793 C.ar    1  UNL1       -0.0027
     31 C         145.0166  141.3708  162.6056 C.3     1  UNL1        0.0849
     32 C         144.7024  142.6449  163.3322 C.ar    1  UNL1       -0.0177
     33 C         144.0695  143.7901  162.5987 C.ar    1  UNL1       -0.0041
     34 C         143.7554  145.0643  163.3253 C.ar    1  UNL1       -0.0003
     35 C         144.0741  145.1933  164.7853 C.ar    1  UNL1       -0.0000
     36 C         144.7070  144.0481  165.5188 C.ar    1  UNL1       -0.0003
     37 C         145.0211  142.7739  164.7922 C.ar    1  UNL1       -0.0041
@<TRIPOS>BOND
     1    19    20    1
     2    20    13    1
     3    13    14   ar
     4    14    15   ar
     5    15    21    1
     6    21    22    1
     7    15    16   ar
     8    16    17   ar
     9    17     8    1
    10     8     9   ar
    11     9    10   ar
    12    10    11   ar
    13    11     1    1
    14     1    31    1
    15    31    32    1
    16    32    33   ar
    17    33    34   ar
    18    34    35   ar
    19    35    36   ar
    20    36    37   ar
    21     1     2    1
    22     2     3    1
    23     3     4    2
    24     3     5   am
    25     5    23    1
    26    23    24    1
    27    23    25    1
    28    25    26   ar
    29    26    27   ar
    30    27    28   ar
    31    28    29   ar
    32    29    30   ar
    33     5     6   am
    34     6     7    2
    35    11    12   ar
    36    17    18   ar
    37    18    13   ar
    38    12     8   ar
    39     6     1    1
    40    37    32   ar
    41    30    25   ar
@<TRIPOS>MOLECULE
*****
 37 41 0 0 0
SMALL
GASTEIGER

@<TRIPOS>ATOM
      1 C         142.1931  141.4939  162.7867 C.3     1  UNL1        0.2777
      2 O         142.9775  142.4838  163.5961 O.3     1  UNL1       -0.4230
      3 C         143.2566  141.8696  164.9358 C.2     1  UNL1        0.4117
      4 O         144.0145  142.5121  166.0595 O.2     1  UNL1       -0.2257
      5 N         142.6447  140.5003  164.9545 N.am    1  UNL1       -0.1902
      6 C         141.9875  140.2680  163.6263 C.2     1  UNL1        0.2797
      7 O         141.2533  139.0277  163.2106 O.2     1  UNL1       -0.2700
      8 C         140.8646  139.3671  159.8242 C.ar    1  UNL1        0.2499
      9 N         139.5851  139.7258  160.5202 N.ar    1  UNL1       -0.1071
     10 N         139.9270  140.5662  161.7146 N.ar    1  UNL1       -0.1072
     11 C         141.4179  140.7269  161.7569 C.ar    1  UNL1        0.2714
     12 O         141.9972  139.9858  160.5885 O.2     1  UNL1       -0.4156
     13 C         142.4691  137.2877  156.8490 C.ar    1  UNL1        0.1419
     14 C         141.2391  136.8727  156.0975 C.ar    1  UNL1        0.0738
     15 C         139.8842  137.2893  156.5882 C.ar    1  UNL1        0.1419
     16 C         139.7593  138.1207  157.8304 C.ar    1  UNL1        0.0418
     17 C         140.9894  138.5356  158.5819 C.ar    1  UNL1        0.0611
     18 C         142.3443  138.1191  158.0912 C.ar    1  UNL1        0.0418
     19 C         144.5074  137.6613  155.2819 C.3     1  UNL1        0.2525
     20 O         143.8240  136.8712  156.3583 O.3     1  UNL1       -0.4713
     21 O         138.6541  136.8743  155.8367 O.3     1  UNL1       -0.4713
     22 C         138.1374  137.7260  154.7152 C.3     1  UNL1        0.2525
     23 C         142.6833  139.5329  166.1002 C.3     1  UNL1        0.1082
     24 C         143.6304  138.3701  166.0685 C.3     1  UNL1        0.0270
     25 C         141.7748  139.7282  167.2777 C.ar    1  UNL1       -0.0038
     26 C         142.3323  139.6898  168.6697 C.ar    1  UNL1       -0.0027
     27 C         141.4239  139.8851  169.8472 C.ar    1  UNL1       -0.0003
     28 C         139.9579  140.1189  169.6326 C.ar    1  UNL1       -0.0000
     29 C         139.4003  140.1574  168.2407 C.ar    1  UNL1       -0.0003
     30 C         140.3087  139.9621  167.0631 C.ar    1  UNL1       -0.0027
     31 C         142.2367  142.5594  161.7319 C.3     1  UNL1        0.0849
     32 C         141.2957  143.7253  161.8041 C.ar    1  UNL1       -0.0177
     33 C         140.4919  143.9645  163.0478 C.ar    1  UNL1       -0.0041
     34 C         139.5509  145.1303  163.1201 C.ar    1  UNL1       -0.0003
     35 C         139.4135  146.0570  161.9486 C.ar    1  UNL1       -0.0000
     36 C         140.2173  145.8178  160.7049 C.ar    1  UNL1       -0.0003
     37 C         141.1583  144.6520  160.6327 C.ar    1  UNL1       -0.0041
@<TRIPOS>BOND
     1    19    20    1
     2    20    13    1
     3    13    14   ar
     4    14    15   ar
     5    15    21    1
     6    21    22    1
     7    15    16   ar
     8    16    17   ar
     9    17     8    1
    10     8     9   ar
    11     9    10   ar
    12    10    11   ar
    13    11     1    1
    14     1    31    1
    15    31    32    1
    16    32    33   ar
    17    33    34   ar
    18    34    35   ar
    19    35    36   ar
    20    36    37   ar
    21     1     2    1
    22     2     3    1
    23     3     4    2
    24     3     5   am
    25     5    23    1
    26    23    24    1
    27    23    25    1
    28    25    26   ar
    29    26    27   ar
    30    27    28   ar
    31    28    29   ar
    32    29    30   ar
    33     5     6   am
    34     6     7    2
    35    11    12   ar
    36    17    18   ar
    37    18    13   ar
    38    12     8   ar
    39     6     1    1
    40    37    32   ar
    41    30    25   ar
@<TRIPOS>MOLECULE
*****
 37 41 0 0 0
SMALL
GASTEIGER

@<TRIPOS>ATOM
      1 C         142.1121  144.1574  161.4793 C.3     1  UNL1        0.2777
      2 O         141.4872  144.6818  160.2204 O.3     1  UNL1       -0.4230
      3 C         142.0831  143.9377  159.0624 C.2     1  UNL1        0.4117
      4 O         141.7452  144.1420  157.6153 O.2     1  UNL1       -0.2257
      5 N         143.0763  142.9535  159.6054 N.am    1  UNL1       -0.1902
      6 C         143.0942  143.0893  161.0991 C.2     1  UNL1        0.2797
      7 O         143.9449  142.2962  162.0465 O.2     1  UNL1       -0.2700
      8 C         142.6795  142.8475  165.0886 C.ar    1  UNL1        0.2499
      9 N         143.7723  143.8689  164.9758 N.ar    1  UNL1       -0.1071
     10 N         143.6927  144.4839  163.6100 N.ar    1  UNL1       -0.1072
     11 C         142.5508  143.8426  162.8787 C.ar    1  UNL1        0.2714
     12 O         141.9246  142.8313  163.7925 O.2     1  UNL1       -0.4156
     13 C         141.1833  141.6360  168.5590 C.ar    1  UNL1        0.1419
     14 C         141.8175  140.2824  168.6840 C.ar    1  UNL1        0.0738
     15 C         142.7390  139.7838  167.6106 C.ar    1  UNL1        0.1419
     16 C         143.0263  140.6388  166.4121 C.ar    1  UNL1        0.0418
     17 C         142.3922  141.9924  166.2871 C.ar    1  UNL1        0.0611
     18 C         141.4707  142.4910  167.3606 C.ar    1  UNL1        0.0418
     19 C         140.2631  143.5870  170.0070 C.3     1  UNL1        0.2525
     20 O         140.2618  142.1345  169.6325 O.3     1  UNL1       -0.4713
     21 O         143.3731  138.4302  167.7357 O.3     1  UNL1       -0.4713
     22 C         144.0881  137.8257  166.5637 C.3     1  UNL1        0.2525
     23 C         143.9059  142.0008  158.7967 C.3     1  UNL1        0.1082
     24 C         145.1751  142.4728  158.1515 C.3     1  UNL1        0.0270
     25 C         143.4664  140.5760  158.6332 C.ar    1  UNL1       -0.0038
     26 C         143.4989  139.6418  159.8064 C.ar    1  UNL1       -0.0027
     27 C         143.0593  138.2170  159.6430 C.ar    1  UNL1       -0.0003
     28 C         142.5873  137.7264  158.3064 C.ar    1  UNL1       -0.0000
     29 C         142.5549  138.6605  157.1332 C.ar    1  UNL1       -0.0003
     30 C         142.9944  140.0854  157.2966 C.ar    1  UNL1       -0.0027
     31 C         141.2217  145.1598  162.1520 C.3     1  UNL1        0.0849
     32 C         139.9847  144.7033  162.8672 C.ar    1  UNL1       -0.0177
     33 C         138.9792  143.8478  162.1551 C.ar    1  UNL1       -0.0041
     34 C         137.7422  143.3913  162.8703 C.ar    1  UNL1       -0.0003
     35 C         137.5107  143.7903  164.2977 C.ar    1  UNL1       -0.0000
     36 C         138.5163  144.6457  165.0097 C.ar    1  UNL1       -0.0003
     37 C         139.7532  145.1022  164.2945 C.ar    1  UNL1       -0.0041
@<TRIPOS>BOND
     1    19    20    1
     2    20    13    1
     3    13    14   ar
     4    14    15   ar
     5    15    21    1
     6    21    22    1
     7    15    16   ar
     8    16    17   ar
     9    17     8    1
    10     8     9   ar
    11     9    10   ar
    12    10    11   ar
    13    11     1    1
    14     1    31    1
    15    31    32    1
    16    32    33   ar
    17    33    34   ar
    18    34    35   ar
    19    35    36   ar
    20    36    37   ar
    21     1     2    1
    22     2     3    1
    23     3     4    2
    24     3     5   am
    25     5    23    1
    26    23    24    1
    27    23    25    1
    28    25    26   ar
    29    26    27   ar
    30    27    28   ar
    31    28    29   ar
    32    29    30   ar
    33     5     6   am
    34     6     7    2
    35    11    12   ar
    36    17    18   ar
    37    18    13   ar
    38    12     8   ar
    39     6     1    1
    40    37    32   ar
    41    30    25   ar
@<TRIPOS>MOLECULE
*****
 37 41 0 0 0
SMALL
GASTEIGER

@<TRIPOS>ATOM
      1 C         139.6239  143.9885  160.4114 C.3     1  UNL1        0.2777
      2 O         140.2900  144.5835  159.2063 O.3     1  UNL1       -0.4230
      3 C         139.8500  143.8053  158.0019 C.2     1  UNL1        0.4117
      4 O         140.2736  144.0587  156.5855 O.2     1  UNL1       -0.2257
      5 N         138.9120  142.7293  158.4625 N.am    1  UNL1       -0.1902
      6 C         138.7722  142.8425  159.9517 C.2     1  UNL1        0.2797
      7 O         137.9288  141.9639  160.8275 O.2     1  UNL1       -0.2700
      8 C         138.8696  142.5294  163.9282 C.ar    1  UNL1        0.2499
      9 N         137.7867  143.5599  163.8035 N.ar    1  UNL1       -0.1071
     10 N         137.9374  144.2319  162.4710 N.ar    1  UNL1       -0.1072
     11 C         139.1135  143.6167  161.7721 C.ar    1  UNL1        0.2714
     12 O         139.6896  142.5645  162.6726 O.2     1  UNL1       -0.4156
     13 C         140.2368  141.1369  167.3838 C.ar    1  UNL1        0.1419
     14 C         139.5403  139.8101  167.4503 C.ar    1  UNL1        0.0738
     15 C         138.6202  139.3897  166.3427 C.ar    1  UNL1        0.1419
     16 C         138.3966  140.2961  165.1687 C.ar    1  UNL1        0.0418
     17 C         139.0931  141.6229  165.1022 C.ar    1  UNL1        0.0611
     18 C         140.0132  142.0433  166.2098 C.ar    1  UNL1        0.0418
     19 C         142.4850  142.1757  168.1691 C.3     1  UNL1        0.2525
     20 O         141.1570  141.5573  168.4914 O.3     1  UNL1       -0.4713
     21 O         137.9237  138.0628  166.4093 O.3     1  UNL1       -0.4713
     22 C         136.9445  137.7842  167.5109 C.3     1  UNL1        0.2525
     23 C         138.2329  141.7177  157.5876 C.3     1  UNL1        0.1082
     24 C         136.9598  142.0734  156.8786 C.3     1  UNL1        0.0270
     25 C         138.8269  140.3503  157.4217 C.ar    1  UNL1       -0.0038
     26 C         139.3426  139.6065  158.6179 C.ar    1  UNL1       -0.0027
     27 C         139.9366  138.2392  158.4521 C.ar    1  UNL1       -0.0003
     28 C         140.0149  137.6157  157.0900 C.ar    1  UNL1       -0.0000
     29 C         139.4992  138.3594  155.8939 C.ar    1  UNL1       -0.0003
     30 C         138.9052  139.7268  156.0597 C.ar    1  UNL1       -0.0027
     31 C         140.3688  145.0567  161.1556 C.3     1  UNL1        0.0849
     32 C         141.6456  144.7228  161.8686 C.ar    1  UNL1       -0.0177
     33 C         141.9207  145.3012  163.2249 C.ar    1  UNL1       -0.0041
     34 C         143.1975  144.9672  163.9378 C.ar    1  UNL1       -0.0003
     35 C         144.1992  144.0548  163.2944 C.ar    1  UNL1       -0.0000
     36 C         143.9241  143.4764  161.9381 C.ar    1  UNL1       -0.0003
     37 C         142.6474  143.8103  161.2251 C.ar    1  UNL1       -0.0041
@<TRIPOS>BOND
     1    19    20    1
     2    20    13    1
     3    13    14   ar
     4    14    15   ar
     5    15    21    1
     6    21    22    1
     7    15    16   ar
     8    16    17   ar
     9    17     8    1
    10     8     9   ar
    11     9    10   ar
    12    10    11   ar
    13    11     1    1
    14     1    31    1
    15    31    32    1
    16    32    33   ar
    17    33    34   ar
    18    34    35   ar
    19    35    36   ar
    20    36    37   ar
    21     1     2    1
    22     2     3    1
    23     3     4    2
    24     3     5   am
    25     5    23    1
    26    23    24    1
    27    23    25    1
    28    25    26   ar
    29    26    27   ar
    30    27    28   ar
    31    28    29   ar
    32    29    30   ar
    33     5     6   am
    34     6     7    2
    35    11    12   ar
    36    17    18   ar
    37    18    13   ar
    38    12     8   ar
    39     6     1    1
    40    37    32   ar
    41    30    25   ar
@<TRIPOS>MOLECULE
*****
 37 41 0 0 0
SMALL
GASTEIGER

@<TRIPOS>ATOM
      1 C         143.5029  140.4587  161.4744 C.3     1  UNL1        0.2777
      2 O         143.9391  141.0728  160.1772 O.3     1  UNL1       -0.4230
      3 C         143.0313  140.5659  159.0961 C.2     1  UNL1        0.4117
      4 O         143.1073  140.9236  157.6413 O.2     1  UNL1       -0.2257
      5 N         142.0341  139.6386  159.7250 N.am    1  UNL1       -0.1902
      6 C         142.3256  139.5723  161.1949 C.2     1  UNL1        0.2797
      7 O         141.5720  138.7619  162.2076 O.2     1  UNL1       -0.2700
      8 C         142.4761  139.8503  165.1678 C.ar    1  UNL1        0.2499
      9 N         143.5208  138.7906  164.9790 N.ar    1  UNL1       -0.1071
     10 N         144.0326  138.8895  163.5725 N.ar    1  UNL1       -0.1072
     11 C         143.3042  140.0104  162.8920 C.ar    1  UNL1        0.2714
     12 O         142.3423  140.6042  163.8779 O.2     1  UNL1       -0.4156
     13 C         139.5728  139.7525  167.8717 C.ar    1  UNL1        0.1419
     14 C         140.1518  140.6307  168.9411 C.ar    1  UNL1        0.0738
     15 C         141.5055  141.2488  168.7527 C.ar    1  UNL1        0.1419
     16 C         142.2803  140.9887  167.4950 C.ar    1  UNL1        0.0418
     17 C         141.7013  140.1105  166.4256 C.ar    1  UNL1        0.0611
     18 C         140.3476  139.4924  166.6140 C.ar    1  UNL1        0.0418
     19 C         137.6145  138.3053  166.9662 C.3     1  UNL1        0.2525
     20 O         138.2191  139.1345  168.0601 O.3     1  UNL1       -0.4713
     21 O         142.0844  142.1270  169.8222 O.3     1  UNL1       -0.4713
     22 C         143.5373  142.4978  169.7832 C.3     1  UNL1        0.2525
     23 C         140.9378  138.9061  159.0097 C.3     1  UNL1        0.1082
     24 C         139.5049  139.1595  159.3735 C.3     1  UNL1        0.0270
     25 C         141.2746  137.9201  157.9306 C.ar    1  UNL1       -0.0038
     26 C         140.2864  137.6375  156.8380 C.ar    1  UNL1       -0.0027
     27 C         140.6231  136.6516  155.7588 C.ar    1  UNL1       -0.0003
     28 C         141.9479  135.9483  155.7723 C.ar    1  UNL1       -0.0000
     29 C         142.9360  136.2309  156.8647 C.ar    1  UNL1       -0.0003
     30 C         142.5994  137.2168  157.9440 C.ar    1  UNL1       -0.0027
     31 C         144.6387  141.2514  162.0502 C.3     1  UNL1        0.0849
     32 C         144.3601  142.4944  162.8423 C.ar    1  UNL1       -0.0177
     33 C         144.8449  142.6065  164.2574 C.ar    1  UNL1       -0.0041
     34 C         144.5663  143.8495  165.0494 C.ar    1  UNL1       -0.0003
     35 C         143.8029  144.9805  164.4264 C.ar    1  UNL1       -0.0000
     36 C         143.3182  144.8684  163.0113 C.ar    1  UNL1       -0.0003
     37 C         143.5968  143.6254  162.2193 C.ar    1  UNL1       -0.0041
@<TRIPOS>BOND
     1    19    20    1
     2    20    13    1
     3    13    14   ar
     4    14    15   ar
     5    15    21    1
     6    21    22    1
     7    15    16   ar
     8    16    17   ar
     9    17     8    1
    10     8     9   ar
    11     9    10   ar
    12    10    11   ar
    13    11     1    1
    14     1    31    1
    15    31    32    1
    16    32    33   ar
    17    33    34   ar
    18    34    35   ar
    19    35    36   ar
    20    36    37   ar
    21     1     2    1
    22     2     3    1
    23     3     4    2
    24     3     5   am
    25     5    23    1
    26    23    24    1
    27    23    25    1
    28    25    26   ar
    29    26    27   ar
    30    27    28   ar
    31    28    29   ar
    32    29    30   ar
    33     5     6   am
    34     6     7    2
    35    11    12   ar
    36    17    18   ar
    37    18    13   ar
    38    12     8   ar
    39     6     1    1
    40    37    32   ar
    41    30    25   ar
@<TRIPOS>MOLECULE
*****
 37 41 0 0 0
SMALL
GASTEIGER

@<TRIPOS>ATOM
      1 C         139.7870  143.6409  160.2233 C.3     1  UNL1        0.2777
      2 O         140.5308  144.2714  159.0834 O.3     1  UNL1       -0.4230
      3 C         140.3217  143.4201  157.8663 C.2     1  UNL1        0.4117
      4 O         140.8864  143.6798  156.5011 O.2     1  UNL1       -0.2257
      5 N         139.4487  142.2636  158.2538 N.am    1  UNL1       -0.1902
      6 C         139.1183  142.4000  159.7106 C.2     1  UNL1        0.2797
      7 O         138.2683  141.4605  160.5137 O.2     1  UNL1       -0.2700
      8 C         138.7792  142.2297  163.6958 C.ar    1  UNL1        0.2499
      9 N         137.5880  143.0820  163.3725 N.ar    1  UNL1       -0.1071
     10 N         137.8205  143.7144  162.0323 N.ar    1  UNL1       -0.1072
     11 C         139.1555  143.2529  161.5274 C.ar    1  UNL1        0.2714
     12 O         139.7480  142.3353  162.5555 O.2     1  UNL1       -0.4156
     13 C         140.0418  141.1068  167.2868 C.ar    1  UNL1        0.1419
     14 C         139.3470  139.7852  167.4311 C.ar    1  UNL1        0.0738
     15 C         138.4631  139.2785  166.3303 C.ar    1  UNL1        0.1419
     16 C         138.2738  140.0933  165.0852 C.ar    1  UNL1        0.0418
     17 C         138.9685  141.4148  164.9409 C.ar    1  UNL1        0.0611
     18 C         139.8525  141.9216  166.0417 C.ar    1  UNL1        0.0418
     19 C         140.5373  142.8417  169.1561 C.3     1  UNL1        0.2525
     20 O         140.9257  141.6135  168.3876 O.3     1  UNL1       -0.4713
     21 O         137.7683  137.9569  166.4746 O.3     1  UNL1       -0.4713
     22 C         136.9503  137.6693  167.6985 C.3     1  UNL1        0.2525
     23 C         138.9872  141.1636  157.3443 C.3     1  UNL1        0.1082
     24 C         139.6875  139.8372  157.3561 C.3     1  UNL1        0.0270
     25 C         137.8253  141.3901  156.4231 C.ar    1  UNL1       -0.0038
     26 C         136.4723  140.8463  156.7747 C.ar    1  UNL1       -0.0027
     27 C         135.3104  141.0727  155.8535 C.ar    1  UNL1       -0.0003
     28 C         135.5015  141.8429  154.5806 C.ar    1  UNL1       -0.0000
     29 C         136.8544  142.3867  154.2290 C.ar    1  UNL1       -0.0003
     30 C         138.0164  142.1603  155.1502 C.ar    1  UNL1       -0.0027
     31 C         140.3237  144.8007  161.0087 C.3     1  UNL1        0.0849
     32 C         141.5748  144.6418  161.8208 C.ar    1  UNL1       -0.0177
     33 C         141.6910  145.3109  163.1582 C.ar    1  UNL1       -0.0041
     34 C         142.9421  145.1520  163.9702 C.ar    1  UNL1       -0.0003
     35 C         144.0772  144.3239  163.4449 C.ar    1  UNL1       -0.0000
     36 C         143.9610  143.6548  162.1074 C.ar    1  UNL1       -0.0003
     37 C         142.7099  143.8137  161.2954 C.ar    1  UNL1       -0.0041
@<TRIPOS>BOND
     1    19    20    1
     2    20    13    1
     3    13    14   ar
     4    14    15   ar
     5    15    21    1
     6    21    22    1
     7    15    16   ar
     8    16    17   ar
     9    17     8    1
    10     8     9   ar
    11     9    10   ar
    12    10    11   ar
    13    11     1    1
    14     1    31    1
    15    31    32    1
    16    32    33   ar
    17    33    34   ar
    18    34    35   ar
    19    35    36   ar
    20    36    37   ar
    21     1     2    1
    22     2     3    1
    23     3     4    2
    24     3     5   am
    25     5    23    1
    26    23    24    1
    27    23    25    1
    28    25    26   ar
    29    26    27   ar
    30    27    28   ar
    31    28    29   ar
    32    29    30   ar
    33     5     6   am
    34     6     7    2
    35    11    12   ar
    36    17    18   ar
    37    18    13   ar
    38    12     8   ar
    39     6     1    1
    40    37    32   ar
    41    30    25   ar
@<TRIPOS>MOLECULE
*****
 37 41 0 0 0
SMALL
GASTEIGER

@<TRIPOS>ATOM
      1 C         139.9514  144.0729  160.4744 C.3     1  UNL1        0.2777
      2 O         140.6927  144.6230  159.2921 O.3     1  UNL1       -0.4230
      3 C         140.2171  143.8978  158.0684 C.2     1  UNL1        0.4117
      4 O         140.6931  144.1302  156.6650 O.2     1  UNL1       -0.2257
      5 N         139.1818  142.8994  158.4942 N.am    1  UNL1       -0.1902
      6 C         139.0176  143.0076  159.9813 C.2     1  UNL1        0.2797
      7 O         138.0836  142.1934  160.8268 O.2     1  UNL1       -0.2700
      8 C         139.0025  142.6497  163.9586 C.ar    1  UNL1        0.2499
      9 N         138.0009  143.7571  163.8152 N.ar    1  UNL1       -0.1071
     10 N         138.2344  144.4250  162.4926 N.ar    1  UNL1       -0.1072
     11 C         139.3804  143.7304  161.8186 C.ar    1  UNL1        0.2714
     12 O         139.8550  142.6332  162.7246 O.2     1  UNL1       -0.4156
     13 C         138.5376  139.4770  166.2969 C.ar    1  UNL1        0.1419
     14 C         139.3826  139.8659  167.4737 C.ar    1  UNL1        0.0738
     15 C         140.1008  141.1827  167.4788 C.ar    1  UNL1        0.1419
     16 C         139.9741  142.1107  166.3071 C.ar    1  UNL1        0.0418
     17 C         139.1292  141.7218  165.1304 C.ar    1  UNL1        0.0611
     18 C         138.4109  140.4049  165.1253 C.ar    1  UNL1        0.0418
     19 C         137.0519  137.7197  167.5030 C.3     1  UNL1        0.2525
     20 O         137.8193  138.1601  166.2918 O.3     1  UNL1       -0.4713
     21 O         140.9458  141.5716  168.6556 O.3     1  UNL1       -0.4713
     22 C         140.9266  140.7363  169.9013 C.3     1  UNL1        0.2525
     23 C         138.4408  141.9581  157.5916 C.3     1  UNL1        0.1082
     24 C         137.2201  142.4279  156.8574 C.3     1  UNL1        0.0270
     25 C         138.9205  140.5469  157.4231 C.ar    1  UNL1       -0.0038
     26 C         139.5280  139.8176  158.5846 C.ar    1  UNL1       -0.0027
     27 C         140.0077  138.4064  158.4163 C.ar    1  UNL1       -0.0003
     28 C         139.8799  137.7245  157.0864 C.ar    1  UNL1       -0.0000
     29 C         139.2724  138.4537  155.9249 C.ar    1  UNL1       -0.0003
     30 C         138.7927  139.8650  156.0932 C.ar    1  UNL1       -0.0027
     31 C         140.7658  145.0665  161.2486 C.3     1  UNL1        0.0849
     32 C         141.9911  144.6180  161.9885 C.ar    1  UNL1       -0.0177
     33 C         142.9322  143.6364  161.3556 C.ar    1  UNL1       -0.0041
     34 C         144.1575  143.1878  162.0955 C.ar    1  UNL1       -0.0003
     35 C         144.4416  143.7208  163.4685 C.ar    1  UNL1       -0.0000
     36 C         143.5005  144.7024  164.1015 C.ar    1  UNL1       -0.0003
     37 C         142.2753  145.1510  163.3616 C.ar    1  UNL1       -0.0041
@<TRIPOS>BOND
     1    19    20    1
     2    20    13    1
     3    13    14   ar
     4    14    15   ar
     5    15    21    1
     6    21    22    1
     7    15    16   ar
     8    16    17   ar
     9    17     8    1
    10     8     9   ar
    11     9    10   ar
    12    10    11   ar
    13    11     1    1
    14     1    31    1
    15    31    32    1
    16    32    33   ar
    17    33    34   ar
    18    34    35   ar
    19    35    36   ar
    20    36    37   ar
    21     1     2    1
    22     2     3    1
    23     3     4    2
    24     3     5   am
    25     5    23    1
    26    23    24    1
    27    23    25    1
    28    25    26   ar
    29    26    27   ar
    30    27    28   ar
    31    28    29   ar
    32    29    30   ar
    33     5     6   am
    34     6     7    2
    35    11    12   ar
    36    17    18   ar
    37    18    13   ar
    38    12     8   ar
    39     6     1    1
    40    37    32   ar
    41    30    25   ar
@<TRIPOS>MOLECULE
*****
 37 41 0 0 0
SMALL
GASTEIGER

@<TRIPOS>ATOM
      1 C         139.6267  138.7016  160.4913 C.3     1  UNL1        0.2777
      2 O         138.7074  138.9471  159.3317 O.3     1  UNL1       -0.4230
      3 C         139.4867  138.7308  158.0685 C.2     1  UNL1        0.4117
      4 O         138.9580  138.8693  156.6716 O.2     1  UNL1       -0.2257
      5 N         140.8877  138.3517  158.4472 N.am    1  UNL1       -0.1902
      6 C         140.9742  138.3336  159.9446 C.2     1  UNL1        0.2797
      7 O         142.1941  138.0053  160.7535 O.2     1  UNL1       -0.2700
      8 C         141.4001  138.9976  163.9311 C.ar    1  UNL1        0.2499
      9 N         141.2388  137.5108  163.8151 N.ar    1  UNL1       -0.1071
     10 N         140.5549  137.2189  162.5124 N.ar    1  UNL1       -0.1072
     11 C         140.2934  138.5254  161.8233 C.ar    1  UNL1        0.2714
     12 O         140.8158  139.6246  162.7001 O.2     1  UNL1       -0.4156
     13 C         142.7090  139.8308  167.5839 C.ar    1  UNL1        0.1419
     14 C         143.3026  141.1914  167.3688 C.ar    1  UNL1        0.0738
     15 C         143.2620  141.8208  166.0078 C.ar    1  UNL1        0.1419
     16 C         142.6279  141.0895  164.8619 C.ar    1  UNL1        0.0418
     17 C         142.0343  139.7289  165.0771 C.ar    1  UNL1        0.0611
     18 C         142.0748  139.0995  166.4380 C.ar    1  UNL1        0.0418
     19 C         141.6571  139.4819  169.9337 C.3     1  UNL1        0.2525
     20 O         142.7496  139.2014  168.9449 O.3     1  UNL1       -0.4713
     21 O         143.8557  143.1815  165.7927 O.3     1  UNL1       -0.4713
     22 C         143.9349  143.7550  164.4090 C.3     1  UNL1        0.2525
     23 C         142.0059  138.0445  157.4958 C.3     1  UNL1        0.1082
     24 C         143.0450  139.0847  157.1988 C.3     1  UNL1        0.0270
     25 C         142.0849  136.6972  156.8412 C.ar    1  UNL1       -0.0038
     26 C         141.1465  136.3501  155.7236 C.ar    1  UNL1       -0.0027
     27 C         141.2254  135.0029  155.0690 C.ar    1  UNL1       -0.0003
     28 C         142.2428  134.0026  155.5321 C.ar    1  UNL1       -0.0000
     29 C         143.1812  134.3496  156.6496 C.ar    1  UNL1       -0.0003
     30 C         143.1023  135.6969  157.3042 C.ar    1  UNL1       -0.0027
     31 C         138.4186  139.0328  161.3164 C.3     1  UNL1        0.0849
     32 C         138.1874  140.4418  161.7758 C.ar    1  UNL1       -0.0177
     33 C         138.5413  141.5908  160.8789 C.ar    1  UNL1       -0.0041
     34 C         138.3101  142.9998  161.3383 C.ar    1  UNL1       -0.0003
     35 C         137.7251  143.2600  162.6948 C.ar    1  UNL1       -0.0000
     36 C         137.3712  142.1110  163.5918 C.ar    1  UNL1       -0.0003
     37 C         137.6024  140.7019  163.1323 C.ar    1  UNL1       -0.0041
@<TRIPOS>BOND
     1    19    20    1
     2    20    13    1
     3    13    14   ar
     4    14    15   ar
     5    15    21    1
     6    21    22    1
     7    15    16   ar
     8    16    17   ar
     9    17     8    1
    10     8     9   ar
    11     9    10   ar
    12    10    11   ar
    13    11     1    1
    14     1    31    1
    15    31    32    1
    16    32    33   ar
    17    33    34   ar
    18    34    35   ar
    19    35    36   ar
    20    36    37   ar
    21     1     2    1
    22     2     3    1
    23     3     4    2
    24     3     5   am
    25     5    23    1
    26    23    24    1
    27    23    25    1
    28    25    26   ar
    29    26    27   ar
    30    27    28   ar
    31    28    29   ar
    32    29    30   ar
    33     5     6   am
    34     6     7    2
    35    11    12   ar
    36    17    18   ar
    37    18    13   ar
    38    12     8   ar
    39     6     1    1
    40    37    32   ar
    41    30    25   ar
