@<TRIPOS>MOLECULE
*****
 31 35 0 0 0
SMALL
GASTEIGER

@<TRIPOS>ATOM
      1 C         138.2910  143.7195  162.7003 C.3     1  UNL1        0.0731
      2 N         138.5373  142.7354  163.8051 N.3     1  UNL1       -0.2712
      3 C         137.9709  141.3492  163.8937 C.3     1  UNL1        0.0738
      4 C         138.4769  140.7218  165.1587 C.3     1  UNL1        0.0372
      5 C         138.4395  139.4773  165.9953 C.3     1  UNL1        0.0245
      6 C         139.2955  139.7065  167.2057 C.3     1  UNL1        0.0909
      7 N         139.8618  141.0927  167.1170 N.pl3   1  UNL1       -0.3077
      8 C         139.3559  141.7201  165.8520 C.3     1  UNL1        0.0901
      9 C         139.3933  142.9646  165.0154 C.3     1  UNL1        0.0921
     10 C         140.7740  141.7380  168.1178 C.ar    1  UNL1        0.0480
     11 C         142.1539  141.1921  168.3363 C.ar    1  UNL1        0.0168
     12 C         143.0660  141.8375  169.3370 C.ar    1  UNL1        0.0309
     13 C         142.5982  143.0287  170.1193 C.ar    1  UNL1        0.1402
     14 F         143.5104  143.6741  171.1201 F       1  UNL1       -0.2042
     15 C         141.2183  143.5747  169.9009 C.ar    1  UNL1        0.0309
     16 C         140.3061  142.9294  168.9001 C.ar    1  UNL1        0.0168
     17 C         138.7791  145.1318  162.8312 C.3     1  UNL1        0.0294
     18 C         139.6123  145.7414  161.7430 C.3     1  UNL1        0.0666
     19 S         140.9160  145.1101  161.3537 S.3     1  UNL1       -0.0756
     20 C         141.3664  141.8852  161.5708 C.3     1  UNL1        0.1337
     21 N         141.9514  142.9207  162.4849 N.ar    1  UNL1       -0.2918
     22 C         141.7444  144.4029  162.3851 C.ar    1  UNL1        0.1930
     23 N         142.5111  145.0540  163.4979 N.ar    1  UNL1       -0.1224
     24 N         143.1920  143.9741  164.2854 N.ar    1  UNL1       -0.1328
     25 C         142.8461  142.6556  163.6594 C.ar    1  UNL1        0.1434
     26 C         143.3129  141.3086  164.1259 C.3     1  UNL1        0.0638
     27 C         142.3531  140.3747  164.8015 C.3     1  UNL1        0.0397
     28 C         142.8199  139.0277  165.2680 C.3     1  UNL1        0.1426
     29 O         144.2467  138.6146  165.0588 O.3     1  UNL1       -0.3538
     30 C         145.2066  139.5485  164.3832 C.3     1  UNL1        0.1426
     31 C         144.7397  140.8955  163.9167 C.3     1  UNL1        0.0397
@<TRIPOS>BOND
     1    20    21    1
     2    21    22   ar
     3    22    19    1
     4    19    18    1
     5    18    17    1
     6    17     1    1
     7     1     2    1
     8     2     3    1
     9     3     4    1
    10     4     5    1
    11     5     6    1
    12     6     7    1
    13     7    10    1
    14    10    11   ar
    15    11    12   ar
    16    12    13   ar
    17    13    14    1
    18    13    15   ar
    19    15    16   ar
    20     7     8    1
    21     8     9    1
    22    22    23   ar
    23    23    24   ar
    24    24    25   ar
    25    25    26    1
    26    26    27    1
    27    27    28    1
    28    28    29    1
    29    29    30    1
    30    30    31    1
    31    25    21   ar
    32    31    26    1
    33     9     2    1
    34     8     4    1
    35    16    10   ar
@<TRIPOS>MOLECULE
*****
 31 35 0 0 0
SMALL
GASTEIGER

@<TRIPOS>ATOM
      1 C         139.6372  138.4089  162.4368 C.3     1  UNL1        0.0731
      2 N         140.5153  138.5491  163.6448 N.3     1  UNL1       -0.2712
      3 C         141.8524  137.8989  163.8432 C.3     1  UNL1        0.0738
      4 C         142.3739  138.3122  165.1875 C.3     1  UNL1        0.0372
      5 C         143.5225  138.1657  166.1410 C.3     1  UNL1        0.0245
      6 C         143.2177  138.9808  167.3628 C.3     1  UNL1        0.0909
      7 N         141.8806  139.6311  167.1643 N.pl3   1  UNL1       -0.3077
      8 C         141.3591  139.2178  165.8200 C.3     1  UNL1        0.0901
      9 C         140.2104  139.3643  164.8665 C.3     1  UNL1        0.0921
     10 C         141.1868  140.5358  168.1391 C.ar    1  UNL1        0.0480
     11 C         141.6811  141.9369  168.3447 C.ar    1  UNL1        0.0168
     12 C         140.9873  142.8416  169.3195 C.ar    1  UNL1        0.0309
     13 C         139.7992  142.3451  170.0887 C.ar    1  UNL1        0.1402
     14 F         139.1054  143.2498  171.0635 F       1  UNL1       -0.2042
     15 C         139.3048  140.9439  169.8832 C.ar    1  UNL1        0.0309
     16 C         139.9986  140.0392  168.9084 C.ar    1  UNL1        0.0168
     17 C         138.1942  138.8122  162.5076 C.3     1  UNL1        0.0294
     18 C         137.5877  139.6257  161.4028 C.3     1  UNL1        0.0666
     19 S         138.0840  141.0157  161.1354 S.3     1  UNL1       -0.0756
     20 C         141.2872  141.6044  161.3422 C.3     1  UNL1        0.1337
     21 N         140.2423  142.0597  162.3173 N.ar    1  UNL1       -0.2918
     22 C         138.7699  141.7891  162.2223 C.ar    1  UNL1        0.1930
     23 N         138.1040  142.4276  163.4050 N.ar    1  UNL1       -0.1224
     24 N         139.1647  143.0929  164.2310 N.ar    1  UNL1       -0.1328
     25 C         140.4863  142.8655  163.5588 C.ar    1  UNL1        0.1434
     26 C         141.8180  143.3575  164.0431 C.3     1  UNL1        0.0638
     27 C         142.6362  142.5130  164.9743 C.3     1  UNL1        0.0397
     28 C         143.9679  143.0050  165.4586 C.3     1  UNL1        0.1426
     29 O         144.4813  144.3417  165.0115 O.3     1  UNL1       -0.3538
     30 C         143.6631  145.1862  164.0802 C.3     1  UNL1        0.1426
     31 C         142.3314  144.6941  163.5960 C.3     1  UNL1        0.0397
@<TRIPOS>BOND
     1    20    21    1
     2    21    22   ar
     3    22    19    1
     4    19    18    1
     5    18    17    1
     6    17     1    1
     7     1     2    1
     8     2     3    1
     9     3     4    1
    10     4     5    1
    11     5     6    1
    12     6     7    1
    13     7    10    1
    14    10    11   ar
    15    11    12   ar
    16    12    13   ar
    17    13    14    1
    18    13    15   ar
    19    15    16   ar
    20     7     8    1
    21     8     9    1
    22    22    23   ar
    23    23    24   ar
    24    24    25   ar
    25    25    26    1
    26    26    27    1
    27    27    28    1
    28    28    29    1
    29    29    30    1
    30    30    31    1
    31    25    21   ar
    32    31    26    1
    33     9     2    1
    34     8     4    1
    35    16    10   ar
@<TRIPOS>MOLECULE
*****
 31 35 0 0 0
SMALL
GASTEIGER

@<TRIPOS>ATOM
      1 C         141.3367  145.0899  159.9961 C.3     1  UNL1        0.0731
      2 N         140.9392  144.7078  161.3912 N.3     1  UNL1       -0.2712
      3 C         139.9868  145.4591  162.2736 C.3     1  UNL1        0.0738
      4 C         139.8834  144.7230  163.5765 C.3     1  UNL1        0.0372
      5 C         139.2309  144.7323  164.9271 C.3     1  UNL1        0.0245
      6 C         139.7161  143.5320  165.6847 C.3     1  UNL1        0.0909
      7 N         140.6685  142.7808  164.8022 N.pl3   1  UNL1       -0.3077
      8 C         140.7719  143.5169  163.4993 C.3     1  UNL1        0.0901
      9 C         141.4244  143.5075  162.1487 C.3     1  UNL1        0.0921
     10 C         141.3907  141.5157  165.1598 C.ar    1  UNL1        0.0480
     11 C         141.4355  141.0554  166.5867 C.ar    1  UNL1        0.0168
     12 C         142.1577  139.7903  166.9444 C.ar    1  UNL1        0.0309
     13 C         142.8350  138.9854  165.8752 C.ar    1  UNL1        0.1402
     14 F         143.5572  137.7203  166.2328 F       1  UNL1       -0.2042
     15 C         142.7902  139.4456  164.4481 C.ar    1  UNL1        0.0309
     16 C         142.0680  140.7108  164.0905 C.ar    1  UNL1        0.0168
     17 C         141.0202  144.1763  158.8494 C.3     1  UNL1        0.0294
     18 C         139.5984  143.7890  158.5691 C.3     1  UNL1        0.0666
     19 S         139.1194  142.4057  158.8963 S.3     1  UNL1       -0.0756
     20 C         140.0005  139.8005  160.6531 C.3     1  UNL1        0.1337
     21 N         139.0612  140.8840  161.0931 N.ar    1  UNL1       -0.2918
     22 C         138.6562  142.0815  160.2856 C.ar    1  UNL1        0.1930
     23 N         137.7066  142.8978  161.1114 N.ar    1  UNL1       -0.1224
     24 N         137.5247  142.2049  162.4292 N.ar    1  UNL1       -0.1328
     25 C         138.3618  140.9602  162.4180 C.ar    1  UNL1        0.1434
     26 C         138.4791  139.9664  163.5354 C.3     1  UNL1        0.0638
     27 C         139.0402  138.6011  163.2690 C.3     1  UNL1        0.0397
     28 C         139.1574  137.6072  164.3864 C.3     1  UNL1        0.1426
     29 O         138.7135  137.9789  165.7702 O.3     1  UNL1       -0.3538
     30 C         138.1524  139.3442  166.0366 C.3     1  UNL1        0.1426
     31 C         138.0352  140.3380  164.9192 C.3     1  UNL1        0.0397
@<TRIPOS>BOND
     1    20    21    1
     2    21    22   ar
     3    22    19    1
     4    19    18    1
     5    18    17    1
     6    17     1    1
     7     1     2    1
     8     2     3    1
     9     3     4    1
    10     4     5    1
    11     5     6    1
    12     6     7    1
    13     7    10    1
    14    10    11   ar
    15    11    12   ar
    16    12    13   ar
    17    13    14    1
    18    13    15   ar
    19    15    16   ar
    20     7     8    1
    21     8     9    1
    22    22    23   ar
    23    23    24   ar
    24    24    25   ar
    25    25    26    1
    26    26    27    1
    27    27    28    1
    28    28    29    1
    29    29    30    1
    30    30    31    1
    31    25    21   ar
    32    31    26    1
    33     9     2    1
    34     8     4    1
    35    16    10   ar
@<TRIPOS>MOLECULE
*****
 31 35 0 0 0
SMALL
GASTEIGER

@<TRIPOS>ATOM
      1 C         143.2201  143.2147  160.6948 C.3     1  UNL1        0.0731
      2 N         142.1296  143.2658  161.7235 N.3     1  UNL1       -0.2712
      3 C         141.4745  144.5069  162.2529 C.3     1  UNL1        0.0738
      4 C         140.4428  144.0929  163.2600 C.3     1  UNL1        0.0372
      5 C         139.4003  144.6041  164.2096 C.3     1  UNL1        0.0245
      6 C         138.7734  143.4230  164.8895 C.3     1  UNL1        0.0909
      7 N         139.4286  142.1818  164.3600 N.pl3   1  UNL1       -0.3077
      8 C         140.4603  142.5959  163.3529 C.3     1  UNL1        0.0901
      9 C         141.5028  142.0847  162.4033 C.3     1  UNL1        0.0921
     10 C         139.1083  140.7739  164.7662 C.ar    1  UNL1        0.0480
     11 C         138.5288  140.4979  166.1219 C.ar    1  UNL1        0.0168
     12 C         138.2085  139.0899  166.5282 C.ar    1  UNL1        0.0309
     13 C         138.4677  137.9580  165.5788 C.ar    1  UNL1        0.1402
     14 F         138.1474  136.5500  165.9850 F       1  UNL1       -0.2042
     15 C         139.0472  138.2339  164.2230 C.ar    1  UNL1        0.0309
     16 C         139.3675  139.6419  163.8167 C.ar    1  UNL1        0.0168
     17 C         144.5405  142.5879  161.0320 C.3     1  UNL1        0.0294
     18 C         145.0519  142.6285  162.4416 C.3     1  UNL1        0.0666
     19 S         145.1291  141.3661  163.2481 S.3     1  UNL1       -0.0756
     20 C         144.5585  143.4999  165.6503 C.3     1  UNL1        0.1337
     21 N         143.9393  142.1406  165.5129 N.ar    1  UNL1       -0.2918
     22 C         144.2015  141.1598  164.4087 C.ar    1  UNL1        0.1930
     23 N         143.3735  139.9364  164.6690 N.ar    1  UNL1       -0.1224
     24 N         142.5994  140.1612  165.9340 N.ar    1  UNL1       -0.1328
     25 C         142.9490  141.5234  166.4556 C.ar    1  UNL1        0.1434
     26 C         142.4042  142.1572  167.7012 C.3     1  UNL1        0.0638
     27 C         140.9983  142.6796  167.7236 C.3     1  UNL1        0.0397
     28 C         140.4534  143.3134  168.9692 C.3     1  UNL1        0.1426
     29 O         141.3146  143.4247  170.1924 O.3     1  UNL1       -0.3538
     30 C         142.7205  142.9022  170.1700 C.3     1  UNL1        0.1426
     31 C         143.2653  142.2685  168.9244 C.3     1  UNL1        0.0397
@<TRIPOS>BOND
     1    20    21    1
     2    21    22   ar
     3    22    19    1
     4    19    18    1
     5    18    17    1
     6    17     1    1
     7     1     2    1
     8     2     3    1
     9     3     4    1
    10     4     5    1
    11     5     6    1
    12     6     7    1
    13     7    10    1
    14    10    11   ar
    15    11    12   ar
    16    12    13   ar
    17    13    14    1
    18    13    15   ar
    19    15    16   ar
    20     7     8    1
    21     8     9    1
    22    22    23   ar
    23    23    24   ar
    24    24    25   ar
    25    25    26    1
    26    26    27    1
    27    27    28    1
    28    28    29    1
    29    29    30    1
    30    30    31    1
    31    25    21   ar
    32    31    26    1
    33     9     2    1
    34     8     4    1
    35    16    10   ar
@<TRIPOS>MOLECULE
*****
 31 35 0 0 0
SMALL
GASTEIGER

@<TRIPOS>ATOM
      1 C         142.8194  144.7771  163.3072 C.3     1  UNL1        0.0731
      2 N         143.0081  143.3831  163.8278 N.3     1  UNL1       -0.2712
      3 C         143.7868  142.2897  163.1583 C.3     1  UNL1        0.0738
      4 C         143.7111  141.0686  164.0261 C.3     1  UNL1        0.0372
      5 C         144.1456  139.6381  164.1487 C.3     1  UNL1        0.0245
      6 C         143.5888  139.0927  165.4303 C.3     1  UNL1        0.0909
      7 N         142.8101  140.1861  166.0998 N.pl3   1  UNL1       -0.3077
      8 C         142.8857  141.4072  165.2320 C.3     1  UNL1        0.0901
      9 C         142.4512  142.8377  165.1094 C.3     1  UNL1        0.0921
     10 C         142.0834  140.0774  167.4075 C.ar    1  UNL1        0.0480
     11 C         142.7319  139.3876  168.5709 C.ar    1  UNL1        0.0168
     12 C         142.0052  139.2789  169.8786 C.ar    1  UNL1        0.0309
     13 C         140.6299  139.8600  170.0229 C.ar    1  UNL1        0.1402
     14 F         139.9032  139.7513  171.3306 F       1  UNL1       -0.2042
     15 C         139.9813  140.5499  168.8595 C.ar    1  UNL1        0.0309
     16 C         140.7080  140.6586  167.5518 C.ar    1  UNL1        0.0168
     17 C         141.5195  145.4915  163.5302 C.3     1  UNL1        0.0294
     18 C         140.5199  145.5952  162.4166 C.3     1  UNL1        0.0666
     19 S         139.2481  144.8020  162.4740 S.3     1  UNL1       -0.0756
     20 C         140.6942  142.1157  161.3156 C.3     1  UNL1        0.1337
     21 N         139.9023  142.2126  162.5858 N.ar    1  UNL1       -0.2918
     22 C         139.2376  143.4474  163.1183 C.ar    1  UNL1        0.1930
     23 N         138.5605  143.0898  164.4081 N.ar    1  UNL1       -0.1224
     24 N         138.8067  141.6340  164.6728 N.ar    1  UNL1       -0.1328
     25 C         139.6360  141.0918  163.5465 C.ar    1  UNL1        0.1434
     26 C         140.1149  139.6773  163.4058 C.3     1  UNL1        0.0638
     27 C         140.7535  139.2255  162.1259 C.3     1  UNL1        0.0397
     28 C         141.2324  137.8110  161.9852 C.3     1  UNL1        0.1426
     29 O         141.0727  136.8483  163.1244 O.3     1  UNL1       -0.3538
     30 C         140.4341  137.3001  164.4043 C.3     1  UNL1        0.1426
     31 C         139.9552  138.7146  164.5449 C.3     1  UNL1        0.0397
@<TRIPOS>BOND
     1    20    21    1
     2    21    22   ar
     3    22    19    1
     4    19    18    1
     5    18    17    1
     6    17     1    1
     7     1     2    1
     8     2     3    1
     9     3     4    1
    10     4     5    1
    11     5     6    1
    12     6     7    1
    13     7    10    1
    14    10    11   ar
    15    11    12   ar
    16    12    13   ar
    17    13    14    1
    18    13    15   ar
    19    15    16   ar
    20     7     8    1
    21     8     9    1
    22    22    23   ar
    23    23    24   ar
    24    24    25   ar
    25    25    26    1
    26    26    27    1
    27    27    28    1
    28    28    29    1
    29    29    30    1
    30    30    31    1
    31    25    21   ar
    32    31    26    1
    33     9     2    1
    34     8     4    1
    35    16    10   ar
@<TRIPOS>MOLECULE
*****
 31 35 0 0 0
SMALL
GASTEIGER

@<TRIPOS>ATOM
      1 C         139.0125  139.6007  168.1233 C.3     1  UNL1        0.0731
      2 N         138.9039  139.6755  166.6291 N.3     1  UNL1       -0.2712
      3 C         138.6193  138.5270  165.7071 C.3     1  UNL1        0.0738
      4 C         138.6004  139.0538  164.3028 C.3     1  UNL1        0.0372
      5 C         138.4128  138.6695  162.8650 C.3     1  UNL1        0.0245
      6 C         138.5697  139.9060  162.0304 C.3     1  UNL1        0.0909
      7 N         138.8542  141.0545  162.9524 N.pl3   1  UNL1       -0.3077
      8 C         138.8732  140.5278  164.3568 C.3     1  UNL1        0.0901
      9 C         139.0608  140.9120  165.7945 C.3     1  UNL1        0.0921
     10 C         139.0801  142.4795  162.5421 C.ar    1  UNL1        0.0480
     11 C         139.9263  142.7896  161.3430 C.ar    1  UNL1        0.0168
     12 C         140.1522  144.2146  160.9327 C.ar    1  UNL1        0.0309
     13 C         139.5320  145.3295  161.7215 C.ar    1  UNL1        0.1402
     14 F         139.7579  146.7545  161.3111 F       1  UNL1       -0.2042
     15 C         138.6857  145.0195  162.9206 C.ar    1  UNL1        0.0309
     16 C         138.4598  143.5945  163.3309 C.ar    1  UNL1        0.0168
     17 C         139.9925  140.4743  168.8487 C.3     1  UNL1        0.0294
     18 C         141.2025  139.8679  169.4953 C.3     1  UNL1        0.0666
     19 S         142.3763  139.4594  168.6555 S.3     1  UNL1       -0.0756
     20 C         143.1573  142.4680  167.6614 C.3     1  UNL1        0.1337
     21 N         142.8346  141.3023  166.7743 N.ar    1  UNL1       -0.2918
     22 C         142.4756  139.9194  167.2312 C.ar    1  UNL1        0.1930
     23 N         142.2334  139.0772  166.0138 N.ar    1  UNL1       -0.1224
     24 N         142.4427  139.9396  164.8045 N.ar    1  UNL1       -0.1328
     25 C         142.8142  141.3148  165.2744 C.ar    1  UNL1        0.1434
     26 C         143.1130  142.4952  164.3983 C.3     1  UNL1        0.0638
     27 C         142.2568  143.7243  164.4783 C.3     1  UNL1        0.0397
     28 C         142.5556  144.9047  163.6022 C.3     1  UNL1        0.1426
     29 O         143.7105  144.8559  162.6462 O.3     1  UNL1       -0.3538
     30 C         144.5666  143.6268  162.5663 C.3     1  UNL1        0.1426
     31 C         144.2678  142.4464  163.4424 C.3     1  UNL1        0.0397
@<TRIPOS>BOND
     1    20    21    1
     2    21    22   ar
     3    22    19    1
     4    19    18    1
     5    18    17    1
     6    17     1    1
     7     1     2    1
     8     2     3    1
     9     3     4    1
    10     4     5    1
    11     5     6    1
    12     6     7    1
    13     7    10    1
    14    10    11   ar
    15    11    12   ar
    16    12    13   ar
    17    13    14    1
    18    13    15   ar
    19    15    16   ar
    20     7     8    1
    21     8     9    1
    22    22    23   ar
    23    23    24   ar
    24    24    25   ar
    25    25    26    1
    26    26    27    1
    27    27    28    1
    28    28    29    1
    29    29    30    1
    30    30    31    1
    31    25    21   ar
    32    31    26    1
    33     9     2    1
    34     8     4    1
    35    16    10   ar
@<TRIPOS>MOLECULE
*****
 31 35 0 0 0
SMALL
GASTEIGER

@<TRIPOS>ATOM
      1 C         137.7376  143.4139  162.7705 C.3     1  UNL1        0.0731
      2 N         138.1537  142.0996  163.3618 N.3     1  UNL1       -0.2712
      3 C         137.9282  140.7477  162.7521 C.3     1  UNL1        0.0738
      4 C         138.5034  139.7191  163.6801 C.3     1  UNL1        0.0372
      5 C         138.7196  138.2479  163.8768 C.3     1  UNL1        0.0245
      6 C         139.4342  138.0546  165.1814 C.3     1  UNL1        0.0909
      7 N         139.6596  139.4066  165.7911 N.pl3   1  UNL1       -0.3077
      8 C         139.0844  140.4352  164.8631 C.3     1  UNL1        0.0901
      9 C         138.8682  141.9065  164.6664 C.3     1  UNL1        0.0921
     10 C         140.3407  139.6815  167.0989 C.ar    1  UNL1        0.0480
     11 C         139.5241  139.9634  168.3251 C.ar    1  UNL1        0.0168
     12 C         140.2051  140.2384  169.6330 C.ar    1  UNL1        0.0309
     13 C         141.7029  140.2314  169.7147 C.ar    1  UNL1        0.1402
     14 F         142.3839  140.5064  171.0225 F       1  UNL1       -0.2042
     15 C         142.5196  139.9495  168.4884 C.ar    1  UNL1        0.0309
     16 C         141.8385  139.6746  167.1806 C.ar    1  UNL1        0.0168
     17 C         138.3758  144.6855  163.2455 C.3     1  UNL1        0.0294
     18 C         139.3282  145.4255  162.3536 C.3     1  UNL1        0.0666
     19 S         140.7980  145.4144  162.6525 S.3     1  UNL1       -0.0756
     20 C         141.1916  142.7924  160.7498 C.3     1  UNL1        0.1337
     21 N         141.6547  142.9288  162.1700 N.ar    1  UNL1       -0.2918
     22 C         141.4738  144.1339  163.0446 C.ar    1  UNL1        0.1930
     23 N         142.0874  143.8339  164.3800 N.ar    1  UNL1       -0.1224
     24 N         142.6476  142.4433  164.3309 N.ar    1  UNL1       -0.1328
     25 C         142.3802  141.8838  162.9650 C.ar    1  UNL1        0.1434
     26 C         142.7698  140.5191  162.4794 C.3     1  UNL1        0.0638
     27 C         142.1499  139.2991  163.0939 C.3     1  UNL1        0.0397
     28 C         142.5395  137.9344  162.6083 C.3     1  UNL1        0.1426
     29 O         143.5490  137.7898  161.5082 O.3     1  UNL1       -0.3538
     30 C         144.1688  139.0097  160.8937 C.3     1  UNL1        0.1426
     31 C         143.7792  140.3744  161.3794 C.3     1  UNL1        0.0397
@<TRIPOS>BOND
     1    20    21    1
     2    21    22   ar
     3    22    19    1
     4    19    18    1
     5    18    17    1
     6    17     1    1
     7     1     2    1
     8     2     3    1
     9     3     4    1
    10     4     5    1
    11     5     6    1
    12     6     7    1
    13     7    10    1
    14    10    11   ar
    15    11    12   ar
    16    12    13   ar
    17    13    14    1
    18    13    15   ar
    19    15    16   ar
    20     7     8    1
    21     8     9    1
    22    22    23   ar
    23    23    24   ar
    24    24    25   ar
    25    25    26    1
    26    26    27    1
    27    27    28    1
    28    28    29    1
    29    29    30    1
    30    30    31    1
    31    25    21   ar
    32    31    26    1
    33     9     2    1
    34     8     4    1
    35    16    10   ar
@<TRIPOS>MOLECULE
*****
 31 35 0 0 0
SMALL
GASTEIGER

@<TRIPOS>ATOM
      1 C         142.7072  139.3930  159.5723 C.3     1  UNL1        0.0731
      2 N         143.0895  140.2345  160.7538 N.3     1  UNL1       -0.2712
      3 C         144.4727  140.3943  161.3117 C.3     1  UNL1        0.0738
      4 C         144.3938  141.3225  162.4874 C.3     1  UNL1        0.0372
      5 C         145.1999  141.9949  163.5589 C.3     1  UNL1        0.0245
      6 C         144.2662  142.8243  164.3898 C.3     1  UNL1        0.0909
      7 N         142.8830  142.6645  163.8318 N.pl3   1  UNL1       -0.3077
      8 C         142.9619  141.7363  162.6561 C.3     1  UNL1        0.0901
      9 C         142.1558  141.0639  161.5846 C.3     1  UNL1        0.0921
     10 C         141.6393  143.3181  164.3572 C.ar    1  UNL1        0.0480
     11 C         140.9786  144.4127  163.5729 C.ar    1  UNL1        0.0168
     12 C         139.7349  145.0663  164.0984 C.ar    1  UNL1        0.0309
     13 C         139.1519  144.6252  165.4081 C.ar    1  UNL1        0.1402
     14 F         137.9083  145.2788  165.9336 F       1  UNL1       -0.2042
     15 C         139.8126  143.5305  166.1925 C.ar    1  UNL1        0.0309
     16 C         141.0563  142.8769  165.6671 C.ar    1  UNL1        0.0168
     17 C         141.3546  139.5529  158.9439 C.3     1  UNL1        0.0294
     18 C         140.3306  138.4654  159.0809 C.3     1  UNL1        0.0666
     19 S         139.2986  138.5395  160.1669 S.3     1  UNL1       -0.0756
     20 C         137.8994  139.8872  162.7890 C.3     1  UNL1        0.1337
     21 N         139.0516  138.9268  162.8001 N.ar    1  UNL1       -0.2918
     22 C         139.6947  138.3073  161.5949 C.ar    1  UNL1        0.1930
     23 N         140.8034  137.4148  162.0683 N.ar    1  UNL1       -0.1224
     24 N         140.8456  137.4827  163.5661 N.ar    1  UNL1       -0.1328
     25 C         139.7629  138.4171  164.0185 C.ar    1  UNL1        0.1434
     26 C         139.4470  138.7785  165.4397 C.3     1  UNL1        0.0638
     27 C         138.1072  138.4357  166.0206 C.3     1  UNL1        0.0397
     28 C         137.7913  138.7971  167.4418 C.3     1  UNL1        0.1426
     29 O         138.8153  139.5013  168.2819 O.3     1  UNL1       -0.3538
     30 C         140.1550  139.8441  167.7009 C.3     1  UNL1        0.1426
     31 C         140.4709  139.4827  166.2797 C.3     1  UNL1        0.0397
@<TRIPOS>BOND
     1    20    21    1
     2    21    22   ar
     3    22    19    1
     4    19    18    1
     5    18    17    1
     6    17     1    1
     7     1     2    1
     8     2     3    1
     9     3     4    1
    10     4     5    1
    11     5     6    1
    12     6     7    1
    13     7    10    1
    14    10    11   ar
    15    11    12   ar
    16    12    13   ar
    17    13    14    1
    18    13    15   ar
    19    15    16   ar
    20     7     8    1
    21     8     9    1
    22    22    23   ar
    23    23    24   ar
    24    24    25   ar
    25    25    26    1
    26    26    27    1
    27    27    28    1
    28    28    29    1
    29    29    30    1
    30    30    31    1
    31    25    21   ar
    32    31    26    1
    33     9     2    1
    34     8     4    1
    35    16    10   ar
@<TRIPOS>MOLECULE
*****
 31 35 0 0 0
SMALL
GASTEIGER

@<TRIPOS>ATOM
      1 C         143.2279  143.0906  160.6793 C.3     1  UNL1        0.0731
      2 N         141.8717  143.0110  161.3152 N.3     1  UNL1       -0.2712
      3 C         140.8062  144.0651  161.2545 C.3     1  UNL1        0.0738
      4 C         139.6189  143.5689  162.0253 C.3     1  UNL1        0.0372
      5 C         138.2266  143.9136  162.4641 C.3     1  UNL1        0.0245
      6 C         137.6977  142.7660  163.2724 C.3     1  UNL1        0.0909
      7 N         138.7633  141.7119  163.3330 N.pl3   1  UNL1       -0.3077
      8 C         139.9506  142.2081  162.5623 C.3     1  UNL1        0.0901
      9 C         141.3429  141.8633  162.1234 C.3     1  UNL1        0.0921
     10 C         138.6596  140.3931  164.0402 C.ar    1  UNL1        0.0480
     11 C         138.2070  140.3420  165.4693 C.ar    1  UNL1        0.0168
     12 C         138.1033  139.0233  166.1765 C.ar    1  UNL1        0.0309
     13 C         138.4523  137.7556  165.4546 C.ar    1  UNL1        0.1402
     14 F         138.3487  136.4369  166.1618 F       1  UNL1       -0.2042
     15 C         138.9050  137.8067  164.0254 C.ar    1  UNL1        0.0309
     16 C         139.0086  139.1254  163.3182 C.ar    1  UNL1        0.0168
     17 C         144.2609  142.0462  160.9826 C.3     1  UNL1        0.0294
     18 C         145.0231  142.0977  162.2736 C.3     1  UNL1        0.0666
     19 S         144.7979  141.0470  163.3200 S.3     1  UNL1       -0.0756
     20 C         143.0988  139.0274  165.2394 C.3     1  UNL1        0.1337
     21 N         143.3579  140.4817  165.4999 N.ar    1  UNL1       -0.2918
     22 C         144.1388  141.4100  164.6176 C.ar    1  UNL1        0.1930
     23 N         144.1451  142.7651  165.2608 N.ar    1  UNL1       -0.1224
     24 N         143.3679  142.6744  166.5406 N.ar    1  UNL1       -0.1328
     25 C         142.8814  141.2631  166.6884 C.ar    1  UNL1        0.1434
     26 C         142.0622  140.7274  167.8251 C.3     1  UNL1        0.0638
     27 C         142.6789  139.7834  168.8143 C.3     1  UNL1        0.0397
     28 C         141.8598  139.2477  169.9510 C.3     1  UNL1        0.1426
     29 O         140.4239  139.6561  170.0984 O.3     1  UNL1       -0.3538
     30 C         139.8072  140.6001  169.1091 C.3     1  UNL1        0.1426
     31 C         140.6265  141.1358  167.9725 C.3     1  UNL1        0.0397
@<TRIPOS>BOND
     1    20    21    1
     2    21    22   ar
     3    22    19    1
     4    19    18    1
     5    18    17    1
     6    17     1    1
     7     1     2    1
     8     2     3    1
     9     3     4    1
    10     4     5    1
    11     5     6    1
    12     6     7    1
    13     7    10    1
    14    10    11   ar
    15    11    12   ar
    16    12    13   ar
    17    13    14    1
    18    13    15   ar
    19    15    16   ar
    20     7     8    1
    21     8     9    1
    22    22    23   ar
    23    23    24   ar
    24    24    25   ar
    25    25    26    1
    26    26    27    1
    27    27    28    1
    28    28    29    1
    29    29    30    1
    30    30    31    1
    31    25    21   ar
    32    31    26    1
    33     9     2    1
    34     8     4    1
    35    16    10   ar
