@<TRIPOS>MOLECULE
*****
 32 35 0 0 0
SMALL
GASTEIGER

@<TRIPOS>ATOM
      1 C         137.6958  142.5649  163.9382 C.3     1  UNL1        0.2355
      2 O         137.5156  142.2384  162.4853 O.3     1  UNL1       -0.3290
      3 C         137.7125  140.8319  162.0027 C.3     1  UNL1        0.1629
      4 C         138.0896  139.7519  162.9730 C.3     1  UNL1        0.1144
      5 C         138.2699  140.0784  164.4259 C.3     1  UNL1        0.1629
      6 O         138.0729  141.4850  164.9085 O.3     1  UNL1       -0.3290
      7 N         138.2866  138.3454  162.4903 N.3     1  UNL1       -0.2908
      8 H         138.5507  138.4058  161.5070 H       1  UNL1        0.1237
      9 C         139.2964  137.4584  163.1563 C.3     1  UNL1        0.0957
     10 C         140.6973  137.9482  163.3737 C.ar    1  UNL1       -0.0055
     11 C         141.4797  138.5161  162.2269 C.ar    1  UNL1       -0.0020
     12 C         142.8808  139.0060  162.4443 C.ar    1  UNL1        0.0120
     13 C         143.4993  138.9279  163.8086 C.ar    1  UNL1        0.0682
     14 CL        144.9004  139.4177  164.0261 Cl      1  UNL1       -0.0814
     15 C         142.7169  138.3599  164.9554 C.ar    1  UNL1        0.0679
     16 CL        143.3355  138.2818  166.3198 Cl      1  UNL1       -0.0814
     17 C         141.3159  137.8701  164.7380 C.ar    1  UNL1        0.0093
     18 C         137.4989  143.9714  164.4209 C.3     1  UNL1        0.0661
     19 C         138.6677  144.7582  164.9357 C.3     1  UNL1        0.0355
     20 C         141.5103  142.0677  167.1563 C.ar    1  UNL1        0.2250
     21 C         142.8841  141.8142  166.6102 C.ar    1  UNL1        0.0593
     22 C         143.3104  142.4575  165.3239 C.ar    1  UNL1        0.0254
     23 C         142.3629  143.3543  164.5838 C.ar    1  UNL1        0.0990
     24 N         142.7893  143.9976  163.2975 N.ar    1  UNL1       -0.2400
     25 C         141.8418  144.8945  162.5574 C.ar    1  UNL1        0.1281
     26 C         140.4678  145.1480  163.1034 C.ar    1  UNL1        0.1567
     27 F         139.5203  146.0448  162.3633 F       1  UNL1       -0.2028
     28 C         140.0415  144.5047  164.3897 C.ar    1  UNL1        0.0262
     29 C         140.9891  143.6079  165.1298 C.ar    1  UNL1        0.1002
     30 N         140.5628  142.9646  166.4161 N.ar    1  UNL1       -0.2104
     31 C         139.8515  140.5704  168.4815 C.3     1  UNL1        0.2542
     32 O         141.0840  141.4245  168.4425 O.3     1  UNL1       -0.4561
@<TRIPOS>BOND
     1    31    32    1
     2    32    20    1
     3    20    21   ar
     4    21    22   ar
     5    22    23   ar
     6    23    24   ar
     7    24    25   ar
     8    25    26   ar
     9    26    27    1
    10    26    28   ar
    11    28    19    1
    12    19    18    1
    13     1    18    1
    14     1     2    1
    15     2     3    1
    16     3     4    1
    17     4     7    1
    18     7     9    1
    19     9    10    1
    20    10    11   ar
    21    11    12   ar
    22    12    13   ar
    23    13    14    1
    24    13    15   ar
    25    15    16    1
    26    15    17   ar
    27     4     5    1
    28     5     6    1
    29    28    29   ar
    30    29    30   ar
    31    30    20   ar
    32    29    23   ar
    33     6     1    1
    34    17    10   ar
    35     7     8    1
@<TRIPOS>MOLECULE
*****
 32 35 0 0 0
SMALL
GASTEIGER

@<TRIPOS>ATOM
      1 C         141.4012  144.4899  163.1596 C.3     1  UNL1        0.2355
      2 O         142.3602  144.5192  164.3126 O.3     1  UNL1       -0.3290
      3 C         143.6944  143.8439  164.1958 C.3     1  UNL1        0.1629
      4 C         144.0698  143.1392  162.9259 C.3     1  UNL1        0.1144
      5 C         143.1108  143.1099  161.7728 C.3     1  UNL1        0.1629
      6 O         141.7765  143.7853  161.8897 O.3     1  UNL1       -0.3290
      7 N         145.4040  142.4639  162.8090 N.3     1  UNL1       -0.2908
      8 H         146.1019  143.1324  163.1353 H       1  UNL1        0.1237
      9 C         145.6607  141.1789  163.5390 C.3     1  UNL1        0.0957
     10 C         144.5456  140.1968  163.7434 C.ar    1  UNL1       -0.0055
     11 C         143.9740  139.9856  165.1141 C.ar    1  UNL1       -0.0020
     12 C         142.8588  139.0034  165.3185 C.ar    1  UNL1        0.0120
     13 C         142.3152  138.2324  164.1523 C.ar    1  UNL1        0.0682
     14 CL        141.2000  137.2502  164.3566 Cl      1  UNL1       -0.0814
     15 C         142.8868  138.4436  162.7816 C.ar    1  UNL1        0.0679
     16 CL        142.3432  137.6726  161.6153 Cl      1  UNL1       -0.0814
     17 C         144.0020  139.4257  162.5772 C.ar    1  UNL1        0.0093
     18 C         140.0670  145.1653  163.2764 C.3     1  UNL1        0.0661
     19 C         139.0357  144.6295  164.2249 C.3     1  UNL1        0.0355
     20 C         140.5315  142.0967  167.6303 C.ar    1  UNL1        0.2250
     21 C         140.2314  140.6273  167.6603 C.ar    1  UNL1        0.0593
     22 C         139.4328  140.0023  166.5551 C.ar    1  UNL1        0.0254
     23 C         138.9342  140.8465  165.4200 C.ar    1  UNL1        0.0990
     24 N         138.1355  140.2214  164.3148 N.ar    1  UNL1       -0.2400
     25 C         137.6369  141.0657  163.1797 C.ar    1  UNL1        0.1281
     26 C         137.9369  142.5351  163.1497 C.ar    1  UNL1        0.1567
     27 F         137.4383  143.3794  162.0146 F       1  UNL1       -0.2028
     28 C         138.7356  143.1602  164.2549 C.ar    1  UNL1        0.0262
     29 C         139.2342  142.3159  165.3900 C.ar    1  UNL1        0.1002
     30 N         140.0329  142.9409  166.4952 N.ar    1  UNL1       -0.2104
     31 C         140.6605  143.6299  169.7237 C.3     1  UNL1        0.2542
     32 O         141.3302  142.7218  168.7355 O.3     1  UNL1       -0.4561
@<TRIPOS>BOND
     1    31    32    1
     2    32    20    1
     3    20    21   ar
     4    21    22   ar
     5    22    23   ar
     6    23    24   ar
     7    24    25   ar
     8    25    26   ar
     9    26    27    1
    10    26    28   ar
    11    28    19    1
    12    19    18    1
    13     1    18    1
    14     1     2    1
    15     2     3    1
    16     3     4    1
    17     4     7    1
    18     7     9    1
    19     9    10    1
    20    10    11   ar
    21    11    12   ar
    22    12    13   ar
    23    13    14    1
    24    13    15   ar
    25    15    16    1
    26    15    17   ar
    27     4     5    1
    28     5     6    1
    29    28    29   ar
    30    29    30   ar
    31    30    20   ar
    32    29    23   ar
    33     6     1    1
    34    17    10   ar
    35     7     8    1
@<TRIPOS>MOLECULE
*****
 32 35 0 0 0
SMALL
GASTEIGER

@<TRIPOS>ATOM
      1 C         138.3541  139.8417  162.3680 C.3     1  UNL1        0.2355
      2 O         137.4259  140.5785  163.2876 O.3     1  UNL1       -0.3290
      3 C         137.3602  142.0765  163.2444 C.3     1  UNL1        0.1629
      4 C         138.2227  142.8376  162.2817 C.3     1  UNL1        0.1144
      5 C         139.1509  142.1008  161.3622 C.3     1  UNL1        0.1629
      6 O         139.2166  140.6028  161.4053 O.3     1  UNL1       -0.3290
      7 N         138.1571  144.3355  162.2386 N.3     1  UNL1       -0.2908
      8 H         137.1788  144.5914  162.3729 H       1  UNL1        0.1237
      9 C         138.9553  145.1497  163.2133 C.3     1  UNL1        0.0957
     10 C         140.2716  144.6371  163.7176 C.ar    1  UNL1       -0.0055
     11 C         140.3112  143.6779  164.8702 C.ar    1  UNL1       -0.0020
     12 C         141.6277  143.1653  165.3745 C.ar    1  UNL1        0.0120
     13 C         142.9045  143.6119  164.7262 C.ar    1  UNL1        0.0682
     14 CL        144.2209  143.0993  165.2305 Cl      1  UNL1       -0.0814
     15 C         142.8649  144.5711  163.5737 C.ar    1  UNL1        0.0679
     16 CL        144.1418  145.0177  162.9254 Cl      1  UNL1       -0.0814
     17 C         141.5485  145.0837  163.0694 C.ar    1  UNL1        0.0093
     18 C         138.4198  138.3438  162.4112 C.3     1  UNL1        0.0661
     19 C         138.9132  137.6500  163.6462 C.3     1  UNL1        0.0355
     20 C         143.2932  138.4268  162.9665 C.ar    1  UNL1        0.2250
     21 C         144.0873  139.1867  163.9872 C.ar    1  UNL1        0.0593
     22 C         143.4214  139.6877  165.2344 C.ar    1  UNL1        0.0254
     23 C         141.9615  139.4288  165.4610 C.ar    1  UNL1        0.0990
     24 N         141.2956  139.9299  166.7082 N.ar    1  UNL1       -0.2400
     25 C         139.8356  139.6709  166.9348 C.ar    1  UNL1        0.1281
     26 C         139.0414  138.9109  165.9141 C.ar    1  UNL1        0.1567
     27 F         137.5814  138.6520  166.1407 F       1  UNL1       -0.2028
     28 C         139.7073  138.4099  164.6668 C.ar    1  UNL1        0.0262
     29 C         141.1673  138.6689  164.4403 C.ar    1  UNL1        0.1002
     30 N         141.8332  138.1678  163.1931 N.ar    1  UNL1       -0.2104
     31 C         143.5497  138.4666  160.3814 C.3     1  UNL1        0.2542
     32 O         143.9590  137.9257  161.7193 O.3     1  UNL1       -0.4561
@<TRIPOS>BOND
     1    31    32    1
     2    32    20    1
     3    20    21   ar
     4    21    22   ar
     5    22    23   ar
     6    23    24   ar
     7    24    25   ar
     8    25    26   ar
     9    26    27    1
    10    26    28   ar
    11    28    19    1
    12    19    18    1
    13     1    18    1
    14     1     2    1
    15     2     3    1
    16     3     4    1
    17     4     7    1
    18     7     9    1
    19     9    10    1
    20    10    11   ar
    21    11    12   ar
    22    12    13   ar
    23    13    14    1
    24    13    15   ar
    25    15    16    1
    26    15    17   ar
    27     4     5    1
    28     5     6    1
    29    28    29   ar
    30    29    30   ar
    31    30    20   ar
    32    29    23   ar
    33     6     1    1
    34    17    10   ar
    35     7     8    1
@<TRIPOS>MOLECULE
*****
 32 35 0 0 0
SMALL
GASTEIGER

@<TRIPOS>ATOM
      1 C         142.3728  144.4610  163.4998 C.3     1  UNL1        0.2355
      2 O         141.1612  144.7917  164.3200 O.3     1  UNL1       -0.3290
      3 C         139.7938  144.4404  163.8133 C.3     1  UNL1        0.1629
      4 C         139.6380  143.7583  162.4864 C.3     1  UNL1        0.1144
      5 C         140.8496  143.4276  161.6663 C.3     1  UNL1        0.1629
      6 O         142.2170  143.7790  162.1730 O.3     1  UNL1       -0.3290
      7 N         138.2706  143.4069  161.9797 N.3     1  UNL1       -0.2908
      8 H         138.4016  142.9132  161.0969 H       1  UNL1        0.1237
      9 C         137.3548  142.5632  162.8160 C.3     1  UNL1        0.0957
     10 C         137.8298  141.2451  163.3517 C.ar    1  UNL1       -0.0055
     11 C         138.0774  140.1001  162.4148 C.ar    1  UNL1       -0.0020
     12 C         138.5525  138.7820  162.9506 C.ar    1  UNL1        0.0120
     13 C         138.7800  138.6090  164.4231 C.ar    1  UNL1        0.0682
     14 CL        139.2550  137.2908  164.9588 Cl      1  UNL1       -0.0814
     15 C         138.5324  139.7540  165.3599 C.ar    1  UNL1        0.0679
     16 CL        138.7599  139.5809  166.8324 Cl      1  UNL1       -0.0814
     17 C         138.0573  141.0720  164.8242 C.ar    1  UNL1        0.0093
     18 C         143.7402  144.8124  164.0065 C.3     1  UNL1        0.0661
     19 C         144.4903  143.8449  164.8733 C.3     1  UNL1        0.0355
     20 C         142.2871  141.6422  168.1205 C.ar    1  UNL1        0.2250
     21 C         142.0368  140.1690  167.9906 C.ar    1  UNL1        0.0593
     22 C         142.5209  139.4300  166.7784 C.ar    1  UNL1        0.0254
     23 C         143.2553  140.1641  165.6960 C.ar    1  UNL1        0.0990
     24 N         143.7394  139.4251  164.4838 N.ar    1  UNL1       -0.2400
     25 C         144.4738  140.1593  163.4014 C.ar    1  UNL1        0.1281
     26 C         144.7241  141.6326  163.5313 C.ar    1  UNL1        0.1567
     27 F         145.4585  142.3668  162.4489 F       1  UNL1       -0.2028
     28 C         144.2400  142.3716  164.7435 C.ar    1  UNL1        0.0262
     29 C         143.5056  141.6374  165.8259 C.ar    1  UNL1        0.1002
     30 N         143.0215  142.3764  167.0381 N.ar    1  UNL1       -0.2104
     31 C         140.4191  142.9593  169.3557 C.3     1  UNL1        0.2542
     32 O         141.8030  142.3812  169.3327 O.3     1  UNL1       -0.4561
@<TRIPOS>BOND
     1    31    32    1
     2    32    20    1
     3    20    21   ar
     4    21    22   ar
     5    22    23   ar
     6    23    24   ar
     7    24    25   ar
     8    25    26   ar
     9    26    27    1
    10    26    28   ar
    11    28    19    1
    12    19    18    1
    13     1    18    1
    14     1     2    1
    15     2     3    1
    16     3     4    1
    17     4     7    1
    18     7     9    1
    19     9    10    1
    20    10    11   ar
    21    11    12   ar
    22    12    13   ar
    23    13    14    1
    24    13    15   ar
    25    15    16    1
    26    15    17   ar
    27     4     5    1
    28     5     6    1
    29    28    29   ar
    30    29    30   ar
    31    30    20   ar
    32    29    23   ar
    33     6     1    1
    34    17    10   ar
    35     7     8    1
@<TRIPOS>MOLECULE
*****
 32 35 0 0 0
SMALL
GASTEIGER

@<TRIPOS>ATOM
      1 C         143.0362  142.0465  164.4098 C.3     1  UNL1        0.2355
      2 O         143.0360  142.7150  163.0670 O.3     1  UNL1       -0.3290
      3 C         142.0000  143.7509  162.7451 C.3     1  UNL1        0.1629
      4 C         140.9643  144.1184  163.7660 C.3     1  UNL1        0.1144
      5 C         140.9645  143.4499  165.1088 C.3     1  UNL1        0.1629
      6 O         142.0005  142.4139  165.4307 O.3     1  UNL1       -0.3290
      7 N         139.9283  145.1543  163.4441 N.3     1  UNL1       -0.2908
      8 H         140.2838  145.6900  162.6523 H       1  UNL1        0.1237
      9 C         138.5322  144.7344  163.0912 C.3     1  UNL1        0.0957
     10 C         138.2642  143.3317  162.6323 C.ar    1  UNL1       -0.0055
     11 C         137.6578  142.3366  163.5767 C.ar    1  UNL1       -0.0020
     12 C         137.3898  140.9339  163.1178 C.ar    1  UNL1        0.0120
     13 C         137.7283  140.5263  161.7145 C.ar    1  UNL1        0.0682
     14 CL        137.4603  139.1235  161.2556 Cl      1  UNL1       -0.0814
     15 C         138.3348  141.5214  160.7701 C.ar    1  UNL1        0.0679
     16 CL        138.6732  141.1138  159.3667 Cl      1  UNL1       -0.0814
     17 C         138.6027  142.9241  161.2289 C.ar    1  UNL1        0.0093
     18 C         144.0722  141.0106  164.7317 C.3     1  UNL1        0.0661
     19 C         143.6526  139.6131  165.0799 C.3     1  UNL1        0.0355
     20 C         139.4384  139.1492  166.5885 C.ar    1  UNL1        0.2250
     21 C         138.4152  138.4424  165.7498 C.ar    1  UNL1        0.0593
     22 C         138.7966  137.8902  164.4083 C.ar    1  UNL1        0.0254
     23 C         140.2013  138.0449  163.9055 C.ar    1  UNL1        0.0990
     24 N         140.5828  137.4927  162.5640 N.ar    1  UNL1       -0.2400
     25 C         141.9875  137.6473  162.0611 C.ar    1  UNL1        0.1281
     26 C         143.0108  138.3542  162.8998 C.ar    1  UNL1        0.1567
     27 F         144.4155  138.5088  162.3969 F       1  UNL1       -0.2028
     28 C         142.6293  138.9063  164.2413 C.ar    1  UNL1        0.0262
     29 C         141.2246  138.7517  164.7441 C.ar    1  UNL1        0.1002
     30 N         140.8431  139.3038  166.0856 N.ar    1  UNL1       -0.2104
     31 C         140.1201  140.1774  168.8750 C.3     1  UNL1        0.2542
     32 O         139.0570  139.7014  167.9299 O.3     1  UNL1       -0.4561
@<TRIPOS>BOND
     1    31    32    1
     2    32    20    1
     3    20    21   ar
     4    21    22   ar
     5    22    23   ar
     6    23    24   ar
     7    24    25   ar
     8    25    26   ar
     9    26    27    1
    10    26    28   ar
    11    28    19    1
    12    19    18    1
    13     1    18    1
    14     1     2    1
    15     2     3    1
    16     3     4    1
    17     4     7    1
    18     7     9    1
    19     9    10    1
    20    10    11   ar
    21    11    12   ar
    22    12    13   ar
    23    13    14    1
    24    13    15   ar
    25    15    16    1
    26    15    17   ar
    27     4     5    1
    28     5     6    1
    29    28    29   ar
    30    29    30   ar
    31    30    20   ar
    32    29    23   ar
    33     6     1    1
    34    17    10   ar
    35     7     8    1
@<TRIPOS>MOLECULE
*****
 32 35 0 0 0
SMALL
GASTEIGER

@<TRIPOS>ATOM
      1 C         140.0002  138.2584  164.0953 C.3     1  UNL1        0.2355
      2 O         139.3314  139.0231  165.1989 O.3     1  UNL1       -0.3290
      3 C         138.3208  140.0823  164.8719 C.3     1  UNL1        0.1629
      4 C         137.9791  140.3767  163.4413 C.3     1  UNL1        0.1144
      5 C         138.6479  139.6120  162.3377 C.3     1  UNL1        0.1629
      6 O         139.6585  138.5528  162.6648 O.3     1  UNL1       -0.3290
      7 N         136.9686  141.4358  163.1143 N.3     1  UNL1       -0.2908
      8 H         136.4761  141.6506  163.9813 H       1  UNL1        0.1237
      9 C         137.4152  142.7451  162.5342 C.3     1  UNL1        0.0957
     10 C         138.7530  143.3126  162.9057 C.ar    1  UNL1       -0.0055
     11 C         138.9642  143.9060  164.2671 C.ar    1  UNL1       -0.0020
     12 C         140.3021  144.4735  164.6385 C.ar    1  UNL1        0.0120
     13 C         141.4288  144.4476  163.6487 C.ar    1  UNL1        0.0682
     14 CL        142.7667  145.0151  164.0202 Cl      1  UNL1       -0.0814
     15 C         141.2177  143.8541  162.2874 C.ar    1  UNL1        0.0679
     16 CL        142.3444  143.8282  161.2975 Cl      1  UNL1       -0.0814
     17 C         139.8798  143.2867  161.9159 C.ar    1  UNL1        0.0093
     18 C         141.0108  137.1992  164.4224 C.3     1  UNL1        0.0661
     19 C         142.3209  137.5796  165.0460 C.3     1  UNL1        0.0355
     20 C         142.1109  140.8990  168.0771 C.ar    1  UNL1        0.2250
     21 C         142.7272  142.2323  167.7731 C.ar    1  UNL1        0.0593
     22 C         143.4135  142.4592  166.4587 C.ar    1  UNL1        0.0254
     23 C         143.4835  141.3527  165.4484 C.ar    1  UNL1        0.0990
     24 N         144.1699  141.5796  164.1340 N.ar    1  UNL1       -0.2400
     25 C         144.2399  140.4731  163.1237 C.ar    1  UNL1        0.1281
     26 C         143.6236  139.1398  163.4277 C.ar    1  UNL1        0.1567
     27 F         143.6936  138.0333  162.4173 F       1  UNL1       -0.2028
     28 C         142.9372  138.9129  164.7420 C.ar    1  UNL1        0.0262
     29 C         142.8672  140.0194  165.7524 C.ar    1  UNL1        0.1002
     30 N         142.1809  139.7926  167.0667 N.ar    1  UNL1       -0.2104
     31 C         139.9539  140.9351  169.5248 C.3     1  UNL1        0.2542
     32 O         141.4246  140.6722  169.3914 O.3     1  UNL1       -0.4561
@<TRIPOS>BOND
     1    31    32    1
     2    32    20    1
     3    20    21   ar
     4    21    22   ar
     5    22    23   ar
     6    23    24   ar
     7    24    25   ar
     8    25    26   ar
     9    26    27    1
    10    26    28   ar
    11    28    19    1
    12    19    18    1
    13     1    18    1
    14     1     2    1
    15     2     3    1
    16     3     4    1
    17     4     7    1
    18     7     9    1
    19     9    10    1
    20    10    11   ar
    21    11    12   ar
    22    12    13   ar
    23    13    14    1
    24    13    15   ar
    25    15    16    1
    26    15    17   ar
    27     4     5    1
    28     5     6    1
    29    28    29   ar
    30    29    30   ar
    31    30    20   ar
    32    29    23   ar
    33     6     1    1
    34    17    10   ar
    35     7     8    1
@<TRIPOS>MOLECULE
*****
 32 35 0 0 0
SMALL
GASTEIGER

@<TRIPOS>ATOM
      1 C         140.5056  137.7034  164.2834 C.3     1  UNL1        0.2355
      2 O         141.6839  138.2064  165.0636 O.3     1  UNL1       -0.3290
      3 C         142.9593  138.5545  164.3550 C.3     1  UNL1        0.1629
      4 C         143.0564  138.3996  162.8661 C.3     1  UNL1        0.1144
      5 C         141.8782  137.8967  162.0859 C.3     1  UNL1        0.1629
      6 O         140.6027  137.5486  162.7946 O.3     1  UNL1       -0.3290
      7 N         144.3318  138.7477  162.1575 N.3     1  UNL1       -0.2908
      8 H         144.4509  138.0621  161.4117 H       1  UNL1        0.1237
      9 C         144.4970  140.1010  161.5320 C.3     1  UNL1        0.0957
     10 C         143.8745  141.3052  162.1743 C.ar    1  UNL1       -0.0055
     11 C         142.6413  141.9187  161.5803 C.ar    1  UNL1       -0.0020
     12 C         142.0188  143.1229  162.2226 C.ar    1  UNL1        0.0120
     13 C         142.6294  143.7134  163.4588 C.ar    1  UNL1        0.0682
     14 CL        142.0069  144.9176  164.1011 Cl      1  UNL1       -0.0814
     15 C         143.8626  143.0999  164.0528 C.ar    1  UNL1        0.0679
     16 CL        144.4733  143.6905  165.2891 Cl      1  UNL1       -0.0814
     17 C         144.4852  141.8958  163.4105 C.ar    1  UNL1        0.0093
     18 C         139.2303  137.3553  164.9920 C.3     1  UNL1        0.0661
     19 C         138.3713  138.4421  165.5677 C.3     1  UNL1        0.0355
     20 C         140.5107  141.0585  168.5387 C.ar    1  UNL1        0.2250
     21 C         140.7942  142.4935  168.2068 C.ar    1  UNL1        0.0593
     22 C         140.3645  143.0565  166.8845 C.ar    1  UNL1        0.0254
     23 C         139.6514  142.1844  165.8941 C.ar    1  UNL1        0.0990
     24 N         139.2217  142.7473  164.5718 N.ar    1  UNL1       -0.2400
     25 C         138.5086  141.8752  163.5815 C.ar    1  UNL1        0.1281
     26 C         138.2251  140.4401  163.9134 C.ar    1  UNL1        0.1567
     27 F         137.5120  139.5680  162.9231 F       1  UNL1       -0.2028
     28 C         138.6548  139.8771  165.2357 C.ar    1  UNL1        0.0262
     29 C         139.3680  140.7493  166.2261 C.ar    1  UNL1        0.1002
     30 N         139.7976  140.1864  167.5484 N.ar    1  UNL1       -0.2104
     31 C         142.0324  139.4689  169.9199 C.3     1  UNL1        0.2542
     32 O         140.9404  140.4955  169.8610 O.3     1  UNL1       -0.4561
@<TRIPOS>BOND
     1    31    32    1
     2    32    20    1
     3    20    21   ar
     4    21    22   ar
     5    22    23   ar
     6    23    24   ar
     7    24    25   ar
     8    25    26   ar
     9    26    27    1
    10    26    28   ar
    11    28    19    1
    12    19    18    1
    13     1    18    1
    14     1     2    1
    15     2     3    1
    16     3     4    1
    17     4     7    1
    18     7     9    1
    19     9    10    1
    20    10    11   ar
    21    11    12   ar
    22    12    13   ar
    23    13    14    1
    24    13    15   ar
    25    15    16    1
    26    15    17   ar
    27     4     5    1
    28     5     6    1
    29    28    29   ar
    30    29    30   ar
    31    30    20   ar
    32    29    23   ar
    33     6     1    1
    34    17    10   ar
    35     7     8    1
@<TRIPOS>MOLECULE
*****
 32 35 0 0 0
SMALL
GASTEIGER

@<TRIPOS>ATOM
      1 C         143.8686  143.3693  162.8747 C.3     1  UNL1        0.2355
      2 O         143.6677  143.0721  161.4182 O.3     1  UNL1       -0.3290
      3 C         143.8794  141.6803  160.9006 C.3     1  UNL1        0.1629
      4 C         144.2921  140.5856  161.8394 C.3     1  UNL1        0.1144
      5 C         144.4930  140.8828  163.2959 C.3     1  UNL1        0.1629
      6 O         144.2812  142.2747  163.8135 O.3     1  UNL1       -0.3290
      7 N         144.5038  139.1938  161.3218 N.3     1  UNL1       -0.2908
      8 H         145.4904  138.9751  161.4602 H       1  UNL1        0.1237
      9 C         143.7218  138.0516  161.8997 C.3     1  UNL1        0.0957
     10 C         142.2223  138.0851  161.8836 C.ar    1  UNL1       -0.0055
     11 C         141.4924  138.3785  160.6065 C.ar    1  UNL1       -0.0020
     12 C         139.9928  138.4120  160.5904 C.ar    1  UNL1        0.0120
     13 C         139.2232  138.1521  161.8514 C.ar    1  UNL1        0.0682
     14 CL        137.7236  138.1855  161.8353 Cl      1  UNL1       -0.0814
     15 C         139.9532  137.8586  163.1285 C.ar    1  UNL1        0.0679
     16 CL        139.1836  137.5986  164.3896 Cl      1  UNL1       -0.0814
     17 C         141.4527  137.8251  163.1446 C.ar    1  UNL1        0.0093
     18 C         143.6569  144.7611  163.3923 C.3     1  UNL1        0.0661
     19 C         142.3280  145.1535  163.9671 C.3     1  UNL1        0.0355
     20 C         141.1514  141.7006  166.6019 C.ar    1  UNL1        0.2250
     21 C         139.9277  140.8948  166.2804 C.ar    1  UNL1        0.0593
     22 C         139.0963  141.2400  165.0806 C.ar    1  UNL1        0.0254
     23 C         139.4885  142.3910  164.2023 C.ar    1  UNL1        0.0990
     24 N         138.6571  142.7362  163.0025 N.ar    1  UNL1       -0.2400
     25 C         139.0493  143.8871  162.1242 C.ar    1  UNL1        0.1281
     26 C         140.2729  144.6930  162.4457 C.ar    1  UNL1        0.1567
     27 F         140.6651  145.8439  161.5675 F       1  UNL1       -0.2028
     28 C         141.1044  144.3478  163.6455 C.ar    1  UNL1        0.0262
     29 C         140.7121  143.1967  164.5239 C.ar    1  UNL1        0.1002
     30 N         141.5436  142.8515  165.7237 N.ar    1  UNL1       -0.2104
     31 C         142.3719  139.9299  168.0597 C.3     1  UNL1        0.2542
     32 O         141.9828  141.3554  167.8018 O.3     1  UNL1       -0.4561
@<TRIPOS>BOND
     1    31    32    1
     2    32    20    1
     3    20    21   ar
     4    21    22   ar
     5    22    23   ar
     6    23    24   ar
     7    24    25   ar
     8    25    26   ar
     9    26    27    1
    10    26    28   ar
    11    28    19    1
    12    19    18    1
    13     1    18    1
    14     1     2    1
    15     2     3    1
    16     3     4    1
    17     4     7    1
    18     7     9    1
    19     9    10    1
    20    10    11   ar
    21    11    12   ar
    22    12    13   ar
    23    13    14    1
    24    13    15   ar
    25    15    16    1
    26    15    17   ar
    27     4     5    1
    28     5     6    1
    29    28    29   ar
    30    29    30   ar
    31    30    20   ar
    32    29    23   ar
    33     6     1    1
    34    17    10   ar
    35     7     8    1
@<TRIPOS>MOLECULE
*****
 32 35 0 0 0
SMALL
GASTEIGER

@<TRIPOS>ATOM
      1 C         138.1636  140.7139  164.5810 C.3     1  UNL1        0.2355
      2 O         137.7891  140.7096  163.1285 O.3     1  UNL1       -0.3290
      3 C         137.7018  142.0022  162.3726 C.3     1  UNL1        0.1629
      4 C         137.9890  143.2993  163.0692 C.3     1  UNL1        0.1144
      5 C         138.3634  143.3037  164.5217 C.3     1  UNL1        0.1629
      6 O         138.4507  142.0109  165.2776 O.3     1  UNL1       -0.3290
      7 N         137.9017  144.5920  162.3133 N.3     1  UNL1       -0.2908
      8 H         137.0781  145.0821  162.6623 H       1  UNL1        0.1237
      9 C         139.0397  145.5679  162.3626 C.3     1  UNL1        0.0957
     10 C         140.4550  145.0718  162.3363 C.ar    1  UNL1       -0.0055
     11 C         141.3642  145.3361  163.4997 C.ar    1  UNL1       -0.0020
     12 C         142.7795  144.8399  163.4734 C.ar    1  UNL1        0.0120
     13 C         143.2856  144.0793  162.2837 C.ar    1  UNL1        0.0682
     14 CL        144.7010  143.5831  162.2573 Cl      1  UNL1       -0.0814
     15 C         142.3764  143.8150  161.1203 C.ar    1  UNL1        0.0679
     16 CL        142.8826  143.0543  159.9306 Cl      1  UNL1       -0.0814
     17 C         140.9611  144.3111  161.1466 C.ar    1  UNL1        0.0093
     18 C         138.2508  139.4213  165.3369 C.3     1  UNL1        0.0661
     19 C         139.5883  138.7949  165.5996 C.3     1  UNL1        0.0355
     20 C         142.1872  141.9832  167.4245 C.ar    1  UNL1        0.2250
     21 C         143.4012  142.4718  166.6914 C.ar    1  UNL1        0.0593
     22 C         143.7489  141.8976  165.3500 C.ar    1  UNL1        0.0254
     23 C         142.8826  140.8348  164.7417 C.ar    1  UNL1        0.0990
     24 N         143.2304  140.2606  163.4003 N.ar    1  UNL1       -0.2400
     25 C         142.3641  139.1978  162.7920 C.ar    1  UNL1        0.1281
     26 C         141.1500  138.7092  163.5251 C.ar    1  UNL1        0.1567
     27 F         140.2838  137.6465  162.9168 F       1  UNL1       -0.2028
     28 C         140.8023  139.2835  164.8665 C.ar    1  UNL1        0.0262
     29 C         141.6686  140.3463  165.4748 C.ar    1  UNL1        0.1002
     30 N         141.3209  140.9205  166.8162 N.ar    1  UNL1       -0.2104
     31 C         142.8882  142.6575  169.8336 C.3     1  UNL1        0.2542
     32 O         141.8394  142.5575  168.7659 O.3     1  UNL1       -0.4561
@<TRIPOS>BOND
     1    31    32    1
     2    32    20    1
     3    20    21   ar
     4    21    22   ar
     5    22    23   ar
     6    23    24   ar
     7    24    25   ar
     8    25    26   ar
     9    26    27    1
    10    26    28   ar
    11    28    19    1
    12    19    18    1
    13     1    18    1
    14     1     2    1
    15     2     3    1
    16     3     4    1
    17     4     7    1
    18     7     9    1
    19     9    10    1
    20    10    11   ar
    21    11    12   ar
    22    12    13   ar
    23    13    14    1
    24    13    15   ar
    25    15    16    1
    26    15    17   ar
    27     4     5    1
    28     5     6    1
    29    28    29   ar
    30    29    30   ar
    31    30    20   ar
    32    29    23   ar
    33     6     1    1
    34    17    10   ar
    35     7     8    1
