@<TRIPOS>MOLECULE
*****
 33 37 0 0 0
SMALL
GASTEIGER

@<TRIPOS>ATOM
      1 N         140.0232  138.2162  162.1807 N.3     1  UNL1       -0.2695
      2 C         139.9527  137.9812  163.6604 C.3     1  UNL1        0.0939
      3 C         141.1680  138.1973  164.5129 C.3     1  UNL1        0.1107
      4 N         142.4536  138.6483  163.8854 N.am    1  UNL1       -0.2764
      5 C         143.6689  138.8643  164.7377 C.2     1  UNL1        0.2301
      6 O         144.9545  139.3153  164.1103 O.2     1  UNL1       -0.2745
      7 C         142.5240  138.8832  162.4056 C.3     1  UNL1        0.1107
      8 C         141.3088  138.6672  161.5532 C.3     1  UNL1        0.0939
      9 C         138.8079  138.0001  161.3283 C.3     1  UNL1        0.0769
     10 C         137.6769  138.9843  161.3714 C.3     1  UNL1        0.0445
     11 O         139.1108  145.9417  161.7865 O.2     1  UNL1       -0.2449
     12 C         138.7435  144.7345  162.5975 C.2     1  UNL1        0.3414
     13 O         138.5369  144.6997  164.0828 O.3     1  UNL1       -0.4404
     14 C         138.1841  143.2938  164.4690 C.3     1  UNL1        0.2364
     15 C         138.1727  142.4597  163.2223 C.ar    1  UNL1        0.0378
     16 C         138.5185  143.3501  162.0657 C.ar    1  UNL1        0.0760
     17 C         138.5837  142.7853  160.6777 C.ar    1  UNL1        0.0060
     18 C         138.3032  141.3299  160.4463 C.ar    1  UNL1       -0.0032
     19 C         137.9574  140.4396  161.6028 C.ar    1  UNL1       -0.0104
     20 C         137.8922  141.0045  162.9908 C.ar    1  UNL1        0.0534
     21 CL        137.5464  140.1141  164.1474 Cl      1  UNL1       -0.0828
     22 C         143.5984  138.6294  166.2176 C.3     1  UNL1        0.1116
     23 C         142.8301  139.5760  167.0914 C.ar    1  UNL1       -0.0130
     24 C         142.4522  139.1709  168.4854 C.ar    1  UNL1       -0.0022
     25 C         141.6839  140.1175  169.3593 C.ar    1  UNL1        0.0190
     26 C         141.2936  141.4692  168.8392 C.ar    1  UNL1        0.0862
     27 C         141.6714  141.8744  167.4453 C.ar    1  UNL1        0.0190
     28 C         142.4397  140.9278  166.5714 C.ar    1  UNL1       -0.0022
     29 N         140.5252  142.4158  169.7132 N.ar    1  UNL1       -0.1886
     30 C         140.5922  143.9135  169.6631 C.ar    1  UNL1        0.2258
     31 N         139.6635  144.4542  170.7095 N.ar    1  UNL1       -0.1045
     32 N         139.0226  143.2908  171.4063 N.ar    1  UNL1       -0.0222
     33 N         139.5552  142.0310  170.7905 N.ar    1  UNL1       -0.0385
@<TRIPOS>BOND
     1    11    12    2
     2    12    13    1
     3    13    14    1
     4    14    15    1
     5    15    16   ar
     6    16    17   ar
     7    17    18   ar
     8    18    19   ar
     9    19    10    1
    10    10     9    1
    11     9     1    1
    12     1     2    1
    13     2     3    1
    14     3     4    1
    15     4     5   am
    16     5     6    2
    17     5    22    1
    18    22    23    1
    19    23    24   ar
    20    24    25   ar
    21    25    26   ar
    22    26    29    1
    23    29    30   ar
    24    30    31   ar
    25    31    32   ar
    26    32    33   ar
    27    26    27   ar
    28    27    28   ar
    29     4     7    1
    30     7     8    1
    31    19    20   ar
    32    20    21    1
    33    16    12    1
    34     8     1    1
    35    20    15   ar
    36    28    23   ar
    37    33    29   ar
@<TRIPOS>MOLECULE
*****
 33 37 0 0 0
SMALL
GASTEIGER

@<TRIPOS>ATOM
      1 N         139.8927  138.2965  162.2781 N.3     1  UNL1       -0.2695
      2 C         139.8405  138.0820  163.7616 C.3     1  UNL1        0.0939
      3 C         141.0820  138.2461  164.5874 C.3     1  UNL1        0.1107
      4 N         142.3757  138.6246  163.9294 N.am    1  UNL1       -0.2764
      5 C         143.6172  138.7886  164.7551 C.2     1  UNL1        0.2301
      6 O         144.9109  139.1672  164.0971 O.2     1  UNL1       -0.2745
      7 C         142.4279  138.8390  162.4457 C.3     1  UNL1        0.1107
      8 C         141.1864  138.6750  161.6201 C.3     1  UNL1        0.0939
      9 C         138.6512  138.1324  161.4523 C.3     1  UNL1        0.0769
     10 C         137.7203  139.2925  161.2590 C.3     1  UNL1        0.0445
     11 O         138.5720  145.0968  165.2861 O.2     1  UNL1       -0.2449
     12 C         138.8151  144.5301  163.9187 C.2     1  UNL1        0.3414
     13 O         139.4693  145.2429  162.7724 O.3     1  UNL1       -0.4404
     14 C         139.5052  144.3044  161.6028 C.3     1  UNL1        0.2364
     15 C         138.8733  143.0116  162.0262 C.ar    1  UNL1        0.0378
     16 C         138.4468  143.1511  163.4575 C.ar    1  UNL1        0.0760
     17 C         137.7781  142.0044  164.1560 C.ar    1  UNL1        0.0060
     18 C         137.5360  140.7182  163.4231 C.ar    1  UNL1       -0.0032
     19 C         137.9625  140.5787  161.9919 C.ar    1  UNL1       -0.0104
     20 C         138.6311  141.7254  161.2934 C.ar    1  UNL1        0.0534
     21 CL        139.0577  141.5859  159.8621 Cl      1  UNL1       -0.0828
     22 C         143.5649  138.5742  166.2388 C.3     1  UNL1        0.1116
     23 C         142.8112  139.5354  167.1093 C.ar    1  UNL1       -0.0130
     24 C         142.3676  140.8578  166.5575 C.ar    1  UNL1       -0.0022
     25 C         141.6139  141.8190  167.4280 C.ar    1  UNL1        0.0190
     26 C         141.3037  141.4579  168.8505 C.ar    1  UNL1        0.0862
     27 C         141.7472  140.1356  169.4024 C.ar    1  UNL1        0.0190
     28 C         142.5009  139.1742  168.5319 C.ar    1  UNL1       -0.0022
     29 N         140.5499  142.4192  169.7210 N.ar    1  UNL1       -0.1886
     30 C         140.6829  143.9132  169.7055 C.ar    1  UNL1        0.2258
     31 N         139.7460  144.4726  170.7348 N.ar    1  UNL1       -0.1045
     32 N         139.0340  143.3244  171.3864 N.ar    1  UNL1       -0.0222
     33 N         139.5309  142.0553  170.7598 N.ar    1  UNL1       -0.0385
@<TRIPOS>BOND
     1    11    12    2
     2    12    13    1
     3    13    14    1
     4    14    15    1
     5    15    16   ar
     6    16    17   ar
     7    17    18   ar
     8    18    19   ar
     9    19    10    1
    10    10     9    1
    11     9     1    1
    12     1     2    1
    13     2     3    1
    14     3     4    1
    15     4     5   am
    16     5     6    2
    17     5    22    1
    18    22    23    1
    19    23    24   ar
    20    24    25   ar
    21    25    26   ar
    22    26    29    1
    23    29    30   ar
    24    30    31   ar
    25    31    32   ar
    26    32    33   ar
    27    26    27   ar
    28    27    28   ar
    29     4     7    1
    30     7     8    1
    31    19    20   ar
    32    20    21    1
    33    16    12    1
    34     8     1    1
    35    20    15   ar
    36    28    23   ar
    37    33    29   ar
@<TRIPOS>MOLECULE
*****
 33 37 0 0 0
SMALL
GASTEIGER

@<TRIPOS>ATOM
      1 N         143.0082  141.5264  161.2210 N.3     1  UNL1       -0.2695
      2 C         143.4926  141.4467  162.6383 C.3     1  UNL1        0.0939
      3 C         143.1169  140.2737  163.4946 C.3     1  UNL1        0.1107
      4 N         142.2566  139.1806  162.9334 N.am    1  UNL1       -0.2764
      5 C         141.8808  138.0077  163.7897 C.2     1  UNL1        0.2301
      6 O         141.0205  136.9145  163.2285 O.2     1  UNL1       -0.2745
      7 C         141.7721  139.2603  161.5161 C.3     1  UNL1        0.1107
      8 C         142.1479  140.4332  160.6599 C.3     1  UNL1        0.0939
      9 C         143.3840  142.6993  160.3648 C.3     1  UNL1        0.0769
     10 C         142.5440  143.9418  160.3841 C.3     1  UNL1        0.0445
     11 O         138.5405  145.4144  166.0795 O.2     1  UNL1       -0.2449
     12 C         138.5246  144.7616  164.7290 C.2     1  UNL1        0.3414
     13 O         137.3479  144.0853  164.0905 O.3     1  UNL1       -0.4404
     14 C         137.7787  143.5763  162.7468 C.3     1  UNL1        0.2364
     15 C         139.2217  143.9381  162.5550 C.ar    1  UNL1        0.0378
     16 C         139.6827  144.6707  163.7800 C.ar    1  UNL1        0.0760
     17 C         141.0974  145.1603  163.8732 C.ar    1  UNL1        0.0060
     18 C         142.0512  144.9173  162.7412 C.ar    1  UNL1       -0.0032
     19 C         141.5902  144.1848  161.5162 C.ar    1  UNL1       -0.0104
     20 C         140.1755  143.6951  161.4230 C.ar    1  UNL1        0.0534
     21 CL        139.7145  142.9626  160.1979 Cl      1  UNL1       -0.0828
     22 C         142.3653  137.9281  165.2070 C.3     1  UNL1        0.1116
     23 C         141.8817  138.9212  166.2218 C.ar    1  UNL1       -0.0130
     24 C         140.5037  139.5021  166.1052 C.ar    1  UNL1       -0.0022
     25 C         140.0202  140.4953  167.1200 C.ar    1  UNL1        0.0190
     26 C         140.9146  140.9076  168.2513 C.ar    1  UNL1        0.0862
     27 C         142.2926  140.3268  168.3680 C.ar    1  UNL1        0.0190
     28 C         142.7763  139.3336  167.3532 C.ar    1  UNL1       -0.0022
     29 N         140.4310  141.9009  169.2661 N.ar    1  UNL1       -0.1886
     30 C         140.5169  143.3938  169.1490 C.ar    1  UNL1        0.2258
     31 N         139.9156  143.9912  170.3865 N.ar    1  UNL1       -0.1045
     32 N         139.4581  142.8674  171.2685 N.ar    1  UNL1       -0.0222
     33 N         139.7766  141.5756  170.5760 N.ar    1  UNL1       -0.0385
@<TRIPOS>BOND
     1    11    12    2
     2    12    13    1
     3    13    14    1
     4    14    15    1
     5    15    16   ar
     6    16    17   ar
     7    17    18   ar
     8    18    19   ar
     9    19    10    1
    10    10     9    1
    11     9     1    1
    12     1     2    1
    13     2     3    1
    14     3     4    1
    15     4     5   am
    16     5     6    2
    17     5    22    1
    18    22    23    1
    19    23    24   ar
    20    24    25   ar
    21    25    26   ar
    22    26    29    1
    23    29    30   ar
    24    30    31   ar
    25    31    32   ar
    26    32    33   ar
    27    26    27   ar
    28    27    28   ar
    29     4     7    1
    30     7     8    1
    31    19    20   ar
    32    20    21    1
    33    16    12    1
    34     8     1    1
    35    20    15   ar
    36    28    23   ar
    37    33    29   ar
@<TRIPOS>MOLECULE
*****
 33 37 0 0 0
SMALL
GASTEIGER

@<TRIPOS>ATOM
      1 N         138.6186  140.3626  160.0830 N.3     1  UNL1       -0.2695
      2 C         137.7610  140.3094  161.3123 C.3     1  UNL1        0.0939
      3 C         138.1305  139.3990  162.4458 C.3     1  UNL1        0.1107
      4 N         139.3576  138.5418  162.3498 N.am    1  UNL1       -0.2764
      5 C         139.7271  137.6314  163.4832 C.2     1  UNL1        0.2301
      6 O         140.9543  136.7742  163.3871 O.2     1  UNL1       -0.2745
      7 C         140.2153  138.5950  161.1203 C.3     1  UNL1        0.1107
      8 C         139.8458  139.5054  159.9869 C.3     1  UNL1        0.0939
      9 C         138.2492  141.2730  158.9495 C.3     1  UNL1        0.0769
     10 C         138.5567  142.7387  159.0339 C.3     1  UNL1        0.0445
     11 O         144.3352  144.9104  162.5730 O.2     1  UNL1       -0.2449
     12 C         142.8555  144.6957  162.6938 C.2     1  UNL1        0.3414
     13 O         142.0232  144.9580  163.9139 O.3     1  UNL1       -0.4404
     14 C         140.6017  144.6055  163.5898 C.3     1  UNL1        0.2364
     15 C         140.5554  144.1253  162.1695 C.ar    1  UNL1        0.0378
     16 C         141.9484  144.1811  161.6158 C.ar    1  UNL1        0.0760
     17 C         142.2108  143.7561  160.2014 C.ar    1  UNL1        0.0060
     18 C         141.0802  143.2753  159.3408 C.ar    1  UNL1       -0.0032
     19 C         139.6873  143.2195  159.8945 C.ar    1  UNL1       -0.0104
     20 C         139.4249  143.6445  161.3089 C.ar    1  UNL1        0.0534
     21 CL        138.0320  143.5887  161.8626 Cl      1  UNL1       -0.0828
     22 C         138.8694  137.5782  164.7126 C.3     1  UNL1        0.1116
     23 C         139.1613  138.4861  165.8705 C.ar    1  UNL1       -0.0130
     24 C         140.4730  139.2099  165.9439 C.ar    1  UNL1       -0.0022
     25 C         140.7649  140.1178  167.1017 C.ar    1  UNL1        0.0190
     26 C         139.7450  140.3018  168.1862 C.ar    1  UNL1        0.0862
     27 C         138.4333  139.5780  168.1129 C.ar    1  UNL1        0.0190
     28 C         138.1414  138.6701  166.9550 C.ar    1  UNL1       -0.0022
     29 N         140.0370  141.2097  169.3440 N.ar    1  UNL1       -0.1886
     30 C         140.3993  142.6626  169.2556 C.ar    1  UNL1        0.2258
     31 N         140.6041  143.1749  170.6504 N.ar    1  UNL1       -0.1045
     32 N         140.3684  142.0387  171.6009 N.ar    1  UNL1       -0.0222
     33 N         140.0179  140.8241  170.7935 N.ar    1  UNL1       -0.0385
@<TRIPOS>BOND
     1    11    12    2
     2    12    13    1
     3    13    14    1
     4    14    15    1
     5    15    16   ar
     6    16    17   ar
     7    17    18   ar
     8    18    19   ar
     9    19    10    1
    10    10     9    1
    11     9     1    1
    12     1     2    1
    13     2     3    1
    14     3     4    1
    15     4     5   am
    16     5     6    2
    17     5    22    1
    18    22    23    1
    19    23    24   ar
    20    24    25   ar
    21    25    26   ar
    22    26    29    1
    23    29    30   ar
    24    30    31   ar
    25    31    32   ar
    26    32    33   ar
    27    26    27   ar
    28    27    28   ar
    29     4     7    1
    30     7     8    1
    31    19    20   ar
    32    20    21    1
    33    16    12    1
    34     8     1    1
    35    20    15   ar
    36    28    23   ar
    37    33    29   ar
@<TRIPOS>MOLECULE
*****
 33 37 0 0 0
SMALL
GASTEIGER

@<TRIPOS>ATOM
      1 N         141.4207  138.5402  160.5919 N.3     1  UNL1       -0.2695
      2 C         140.9748  137.9981  161.9174 C.3     1  UNL1        0.0939
      3 C         141.8181  138.2155  163.1388 C.3     1  UNL1        0.1107
      4 N         143.1073  138.9752  163.0344 N.am    1  UNL1       -0.2764
      5 C         143.9506  139.1926  164.2557 C.2     1  UNL1        0.2301
      6 O         145.2398  139.9523  164.1514 O.2     1  UNL1       -0.2745
      7 C         143.5532  139.5173  161.7088 C.3     1  UNL1        0.1107
      8 C         142.7099  139.2999  160.4876 C.3     1  UNL1        0.0939
      9 C         140.5774  138.3228  159.3705 C.3     1  UNL1        0.0769
     10 C         139.3278  139.1276  159.1689 C.3     1  UNL1        0.0445
     11 O         138.7796  145.5072  162.2726 O.2     1  UNL1       -0.2449
     12 C         138.3671  144.0696  162.3873 C.2     1  UNL1        0.3414
     13 O         137.5148  143.4809  163.4722 O.3     1  UNL1       -0.4404
     14 C         137.3553  142.0158  163.1928 C.3     1  UNL1        0.2364
     15 C         138.1091  141.6990  161.9352 C.ar    1  UNL1        0.0378
     16 C         138.7344  142.9684  161.4374 C.ar    1  UNL1        0.0760
     17 C         139.5575  142.9575  160.1835 C.ar    1  UNL1        0.0060
     18 C         139.7553  141.6772  159.4273 C.ar    1  UNL1       -0.0032
     19 C         139.1300  140.4079  159.9251 C.ar    1  UNL1       -0.0104
     20 C         138.3069  140.4188  161.1790 C.ar    1  UNL1        0.0534
     21 CL        137.6816  139.1494  161.6767 Cl      1  UNL1       -0.0828
     22 C         143.5046  138.6504  165.5813 C.3     1  UNL1        0.1116
     23 C         142.7617  139.5323  166.5407 C.ar    1  UNL1       -0.0130
     24 C         142.7525  139.2072  168.0050 C.ar    1  UNL1       -0.0022
     25 C         142.0095  140.0891  168.9644 C.ar    1  UNL1        0.0190
     26 C         141.2758  141.2960  168.4594 C.ar    1  UNL1        0.0862
     27 C         141.2850  141.6211  166.9952 C.ar    1  UNL1        0.0190
     28 C         142.0279  140.7393  166.0357 C.ar    1  UNL1       -0.0022
     29 N         140.5329  142.1778  169.4189 N.ar    1  UNL1       -0.1886
     30 C         140.6985  143.6618  169.5615 C.ar    1  UNL1        0.2258
     31 N         139.7619  144.1317  170.6349 N.ar    1  UNL1       -0.1045
     32 N         139.0175  142.9381  171.1556 N.ar    1  UNL1       -0.0222
     33 N         139.4940  141.7306  170.4040 N.ar    1  UNL1       -0.0385
@<TRIPOS>BOND
     1    11    12    2
     2    12    13    1
     3    13    14    1
     4    14    15    1
     5    15    16   ar
     6    16    17   ar
     7    17    18   ar
     8    18    19   ar
     9    19    10    1
    10    10     9    1
    11     9     1    1
    12     1     2    1
    13     2     3    1
    14     3     4    1
    15     4     5   am
    16     5     6    2
    17     5    22    1
    18    22    23    1
    19    23    24   ar
    20    24    25   ar
    21    25    26   ar
    22    26    29    1
    23    29    30   ar
    24    30    31   ar
    25    31    32   ar
    26    32    33   ar
    27    26    27   ar
    28    27    28   ar
    29     4     7    1
    30     7     8    1
    31    19    20   ar
    32    20    21    1
    33    16    12    1
    34     8     1    1
    35    20    15   ar
    36    28    23   ar
    37    33    29   ar
@<TRIPOS>MOLECULE
*****
 33 37 0 0 0
SMALL
GASTEIGER

@<TRIPOS>ATOM
      1 N         142.1898  142.2534  159.6201 N.3     1  UNL1       -0.2695
      2 C         141.8877  140.9990  160.3849 C.3     1  UNL1        0.0939
      3 C         142.8019  140.5545  161.4880 C.3     1  UNL1        0.1107
      4 N         144.0182  141.3647  161.8262 N.am    1  UNL1       -0.2764
      5 C         144.9324  140.9203  162.9293 C.2     1  UNL1        0.2301
      6 O         146.1486  141.7304  163.2675 O.2     1  UNL1       -0.2745
      7 C         144.3202  142.6192  161.0613 C.3     1  UNL1        0.1107
      8 C         143.4060  143.0635  159.9583 C.3     1  UNL1        0.0939
      9 C         141.2756  142.6979  158.5170 C.3     1  UNL1        0.0769
     10 C         140.0613  143.5192  158.8344 C.3     1  UNL1        0.0445
     11 O         138.5421  145.1699  165.5872 O.2     1  UNL1       -0.2449
     12 C         138.3009  144.1553  164.5090 C.2     1  UNL1        0.3414
     13 O         137.4583  142.9205  164.6328 O.3     1  UNL1       -0.4404
     14 C         137.4965  142.1994  163.3181 C.3     1  UNL1        0.2364
     15 C         138.3629  142.9885  162.3817 C.ar    1  UNL1        0.0378
     16 C         138.8600  144.1972  163.1177 C.ar    1  UNL1        0.0760
     17 C         139.7575  145.1800  162.4260 C.ar    1  UNL1        0.0060
     18 C         140.1579  144.9540  160.9982 C.ar    1  UNL1       -0.0032
     19 C         139.6609  143.7452  160.2622 C.ar    1  UNL1       -0.0104
     20 C         138.7633  142.7625  160.9539 C.ar    1  UNL1        0.0534
     21 CL        138.2662  141.5537  160.2179 Cl      1  UNL1       -0.0828
     22 C         144.6303  139.6657  163.6941 C.3     1  UNL1        0.1116
     23 C         143.7513  139.7210  164.9083 C.ar    1  UNL1       -0.0130
     24 C         142.7705  140.8438  165.0738 C.ar    1  UNL1       -0.0022
     25 C         141.8916  140.8990  166.2880 C.ar    1  UNL1        0.0190
     26 C         141.9935  139.8315  167.3368 C.ar    1  UNL1        0.0862
     27 C         142.9742  138.7087  167.1715 C.ar    1  UNL1        0.0190
     28 C         143.8532  138.6534  165.9572 C.ar    1  UNL1       -0.0022
     29 N         141.1145  139.8868  168.5511 N.ar    1  UNL1       -0.1886
     30 C         141.5807  139.9938  169.9728 C.ar    1  UNL1        0.2258
     31 N         140.3694  140.0180  170.8572 N.ar    1  UNL1       -0.1045
     32 N         139.1546  139.9259  169.9822 N.ar    1  UNL1       -0.0222
     33 N         139.6151  139.8448  168.5569 N.ar    1  UNL1       -0.0385
@<TRIPOS>BOND
     1    11    12    2
     2    12    13    1
     3    13    14    1
     4    14    15    1
     5    15    16   ar
     6    16    17   ar
     7    17    18   ar
     8    18    19   ar
     9    19    10    1
    10    10     9    1
    11     9     1    1
    12     1     2    1
    13     2     3    1
    14     3     4    1
    15     4     5   am
    16     5     6    2
    17     5    22    1
    18    22    23    1
    19    23    24   ar
    20    24    25   ar
    21    25    26   ar
    22    26    29    1
    23    29    30   ar
    24    30    31   ar
    25    31    32   ar
    26    32    33   ar
    27    26    27   ar
    28    27    28   ar
    29     4     7    1
    30     7     8    1
    31    19    20   ar
    32    20    21    1
    33    16    12    1
    34     8     1    1
    35    20    15   ar
    36    28    23   ar
    37    33    29   ar
@<TRIPOS>MOLECULE
*****
 33 37 0 0 0
SMALL
GASTEIGER

@<TRIPOS>ATOM
      1 N         143.1826  139.7950  160.2387 N.3     1  UNL1       -0.2695
      2 C         143.7191  139.5649  161.6204 C.3     1  UNL1        0.0939
      3 C         142.8395  138.9628  162.6759 C.3     1  UNL1        0.1107
      4 N         141.4235  138.5909  162.3495 N.am    1  UNL1       -0.2764
      5 C         140.5439  137.9888  163.4049 C.2     1  UNL1        0.2301
      6 O         139.1279  137.6169  163.0786 O.2     1  UNL1       -0.2745
      7 C         140.8870  138.8210  160.9678 C.3     1  UNL1        0.1107
      8 C         141.7665  139.4231  159.9124 C.3     1  UNL1        0.0939
      9 C         144.0621  140.3971  159.1832 C.3     1  UNL1        0.0769
     10 C         144.2316  141.8855  159.1076 C.3     1  UNL1        0.0445
     11 O         139.0960  146.1087  161.6421 O.2     1  UNL1       -0.2449
     12 C         140.4266  145.4976  161.9677 C.2     1  UNL1        0.3414
     13 O         141.1926  145.6816  163.2442 O.3     1  UNL1       -0.4404
     14 C         142.4643  144.8930  163.1394 C.3     1  UNL1        0.2364
     15 C         142.4843  144.2217  161.7982 C.ar    1  UNL1        0.0378
     16 C         141.2249  144.5954  161.0741 C.ar    1  UNL1        0.0760
     17 C         140.9677  144.0658  159.6944 C.ar    1  UNL1        0.0060
     18 C         141.9700  143.1625  159.0390 C.ar    1  UNL1       -0.0032
     19 C         143.2293  142.7888  159.7631 C.ar    1  UNL1       -0.0104
     20 C         143.4865  143.3184  161.1427 C.ar    1  UNL1        0.0534
     21 CL        144.7459  142.9447  161.8668 Cl      1  UNL1       -0.0828
     22 C         141.0805  137.7586  164.7867 C.3     1  UNL1        0.1116
     23 C         140.8458  138.7780  165.8617 C.ar    1  UNL1       -0.0130
     24 C         139.4471  139.1006  166.2970 C.ar    1  UNL1       -0.0022
     25 C         139.2124  140.1199  167.3721 C.ar    1  UNL1        0.0190
     26 C         140.3765  140.8168  168.0118 C.ar    1  UNL1        0.0862
     27 C         141.7752  140.4944  167.5766 C.ar    1  UNL1        0.0190
     28 C         142.0100  139.4749  166.5015 C.ar    1  UNL1       -0.0022
     29 N         140.1417  141.8362  169.0869 N.ar    1  UNL1       -0.1886
     30 C         140.5186  143.2868  169.0239 C.ar    1  UNL1        0.2258
     31 N         140.0988  143.9311  170.3117 N.ar    1  UNL1       -0.1045
     32 N         139.4624  142.8789  171.1706 N.ar    1  UNL1       -0.0222
     33 N         139.4890  141.5842  170.4137 N.ar    1  UNL1       -0.0385
@<TRIPOS>BOND
     1    11    12    2
     2    12    13    1
     3    13    14    1
     4    14    15    1
     5    15    16   ar
     6    16    17   ar
     7    17    18   ar
     8    18    19   ar
     9    19    10    1
    10    10     9    1
    11     9     1    1
    12     1     2    1
    13     2     3    1
    14     3     4    1
    15     4     5   am
    16     5     6    2
    17     5    22    1
    18    22    23    1
    19    23    24   ar
    20    24    25   ar
    21    25    26   ar
    22    26    29    1
    23    29    30   ar
    24    30    31   ar
    25    31    32   ar
    26    32    33   ar
    27    26    27   ar
    28    27    28   ar
    29     4     7    1
    30     7     8    1
    31    19    20   ar
    32    20    21    1
    33    16    12    1
    34     8     1    1
    35    20    15   ar
    36    28    23   ar
    37    33    29   ar
@<TRIPOS>MOLECULE
*****
 33 37 0 0 0
SMALL
GASTEIGER

@<TRIPOS>ATOM
      1 N         141.7534  142.3314  166.8169 N.3     1  UNL1       -0.2695
      2 C         140.5866  142.9719  166.1254 C.3     1  UNL1        0.0939
      3 C         140.7957  143.7313  164.8489 C.3     1  UNL1        0.1107
      4 N         142.1718  143.8502  164.2638 N.am    1  UNL1       -0.2764
      5 C         142.3810  144.6096  162.9873 C.2     1  UNL1        0.2301
      6 O         143.7571  144.7285  162.4023 O.2     1  UNL1       -0.2745
      7 C         143.3387  143.2097  164.9553 C.3     1  UNL1        0.1107
      8 C         143.1295  142.4503  166.2319 C.3     1  UNL1        0.0939
      9 C         141.5442  141.5720  168.0935 C.3     1  UNL1        0.0769
     10 C         141.0565  140.1542  168.0514 C.3     1  UNL1        0.0445
     11 O         137.8973  137.6700  162.1793 O.2     1  UNL1       -0.2449
     12 C         139.2164  137.7833  162.8844 C.2     1  UNL1        0.3414
     13 O         140.5308  137.2605  162.3851 O.3     1  UNL1       -0.4404
     14 C         141.5795  137.5934  163.4046 C.3     1  UNL1        0.2364
     15 C         140.9133  138.3219  164.5340 C.ar    1  UNL1        0.0378
     16 C         139.4529  138.4392  164.2125 C.ar    1  UNL1        0.0760
     17 C         138.5270  139.1282  165.1705 C.ar    1  UNL1        0.0060
     18 C         139.0616  139.6999  166.4502 C.ar    1  UNL1       -0.0032
     19 C         140.5219  139.5825  166.7717 C.ar    1  UNL1       -0.0104
     20 C         141.4478  138.8935  165.8136 C.ar    1  UNL1        0.0534
     21 CL        142.9083  138.7762  166.1352 Cl      1  UNL1       -0.0828
     22 C         141.2141  145.2501  162.2959 C.3     1  UNL1        0.1116
     23 C         140.4432  144.4850  161.2613 C.ar    1  UNL1       -0.0130
     24 C         140.7123  144.7146  159.8036 C.ar    1  UNL1       -0.0022
     25 C         139.9414  143.9495  158.7690 C.ar    1  UNL1        0.0190
     26 C         138.9014  142.9549  159.1921 C.ar    1  UNL1        0.0862
     27 C         138.6322  142.7252  160.6497 C.ar    1  UNL1        0.0190
     28 C         139.4031  143.4903  161.6844 C.ar    1  UNL1       -0.0022
     29 N         138.1305  142.1898  158.1575 N.ar    1  UNL1       -0.1886
     30 C         137.9841  140.6984  158.0912 C.ar    1  UNL1        0.2258
     31 N         137.1338  140.3686  156.9002 N.ar    1  UNL1       -0.1045
     32 N         136.7548  141.6561  156.2305 N.ar    1  UNL1       -0.0222
     33 N         137.3708  142.7816  157.0075 N.ar    1  UNL1       -0.0385
@<TRIPOS>BOND
     1    11    12    2
     2    12    13    1
     3    13    14    1
     4    14    15    1
     5    15    16   ar
     6    16    17   ar
     7    17    18   ar
     8    18    19   ar
     9    19    10    1
    10    10     9    1
    11     9     1    1
    12     1     2    1
    13     2     3    1
    14     3     4    1
    15     4     5   am
    16     5     6    2
    17     5    22    1
    18    22    23    1
    19    23    24   ar
    20    24    25   ar
    21    25    26   ar
    22    26    29    1
    23    29    30   ar
    24    30    31   ar
    25    31    32   ar
    26    32    33   ar
    27    26    27   ar
    28    27    28   ar
    29     4     7    1
    30     7     8    1
    31    19    20   ar
    32    20    21    1
    33    16    12    1
    34     8     1    1
    35    20    15   ar
    36    28    23   ar
    37    33    29   ar
@<TRIPOS>MOLECULE
*****
 33 37 0 0 0
SMALL
GASTEIGER

@<TRIPOS>ATOM
      1 N         142.2723  139.0790  159.8455 N.3     1  UNL1       -0.2695
      2 C         141.3538  138.4578  160.8555 C.3     1  UNL1        0.0939
      3 C         141.7714  138.3669  162.2934 C.3     1  UNL1        0.1107
      4 N         143.1077  138.8973  162.7211 N.am    1  UNL1       -0.2764
      5 C         143.5255  138.8065  164.1589 C.2     1  UNL1        0.2301
      6 O         144.8618  139.3369  164.5866 O.2     1  UNL1       -0.2745
      7 C         144.0263  139.5186  161.7110 C.3     1  UNL1        0.1107
      8 C         143.6086  139.6094  160.2732 C.3     1  UNL1        0.0939
      9 C         141.8546  139.1698  158.4077 C.3     1  UNL1        0.0769
     10 C         141.0392  140.3370  157.9358 C.3     1  UNL1        0.0445
     11 O         137.9970  144.7012  162.6615 O.2     1  UNL1       -0.2449
     12 C         139.2365  144.4800  161.8462 C.2     1  UNL1        0.3414
     13 O         140.4504  145.3610  161.8306 O.3     1  UNL1       -0.4404
     14 C         141.4439  144.7645  160.8782 C.3     1  UNL1        0.2364
     15 C         140.8441  143.5147  160.3052 C.ar    1  UNL1        0.0378
     16 C         139.4798  143.3389  160.9035 C.ar    1  UNL1        0.0760
     17 C         138.6354  142.1625  160.5126 C.ar    1  UNL1        0.0060
     18 C         139.1552  141.1618  159.5234 C.ar    1  UNL1       -0.0032
     19 C         140.5194  141.3377  158.9251 C.ar    1  UNL1       -0.0104
     20 C         141.3638  142.5141  159.3160 C.ar    1  UNL1        0.0534
     21 CL        142.7281  142.6899  158.7177 Cl      1  UNL1       -0.0828
     22 C         142.6068  138.1852  165.1689 C.3     1  UNL1        0.1116
     23 C         142.1471  138.9813  166.3542 C.ar    1  UNL1       -0.0130
     24 C         140.8460  139.7257  166.2987 C.ar    1  UNL1       -0.0022
     25 C         140.3862  140.5218  167.4840 C.ar    1  UNL1        0.0190
     26 C         141.2276  140.5735  168.7247 C.ar    1  UNL1        0.0862
     27 C         142.5286  139.8291  168.7803 C.ar    1  UNL1        0.0190
     28 C         142.9884  139.0330  167.5950 C.ar    1  UNL1       -0.0022
     29 N         140.7678  141.3696  169.9100 N.ar    1  UNL1       -0.1886
     30 C         139.7813  142.4993  169.8843 C.ar    1  UNL1        0.2258
     31 N         139.6175  143.0038  171.2874 N.ar    1  UNL1       -0.1045
     32 N         140.5027  142.1858  172.1803 N.ar    1  UNL1       -0.0222
     33 N         141.2136  141.1759  171.3290 N.ar    1  UNL1       -0.0385
@<TRIPOS>BOND
     1    11    12    2
     2    12    13    1
     3    13    14    1
     4    14    15    1
     5    15    16   ar
     6    16    17   ar
     7    17    18   ar
     8    18    19   ar
     9    19    10    1
    10    10     9    1
    11     9     1    1
    12     1     2    1
    13     2     3    1
    14     3     4    1
    15     4     5   am
    16     5     6    2
    17     5    22    1
    18    22    23    1
    19    23    24   ar
    20    24    25   ar
    21    25    26   ar
    22    26    29    1
    23    29    30   ar
    24    30    31   ar
    25    31    32   ar
    26    32    33   ar
    27    26    27   ar
    28    27    28   ar
    29     4     7    1
    30     7     8    1
    31    19    20   ar
    32    20    21    1
    33    16    12    1
    34     8     1    1
    35    20    15   ar
    36    28    23   ar
    37    33    29   ar
