@<TRIPOS>MOLECULE
*****
 33 37 0 0 0
SMALL
GASTEIGER

@<TRIPOS>ATOM
      1 C         139.0904  141.7164  163.2985 C.ar    1  UNL1        0.0327
      2 C         137.8433  142.3940  162.8133 C.ar    1  UNL1        0.1001
      3 N         137.7645  142.8992  161.4031 N.ar    1  UNL1       -0.2420
      4 C         138.9327  142.7268  160.4783 C.ar    1  UNL1        0.1078
      5 C         140.1799  142.0492  160.9635 C.ar    1  UNL1        0.1207
      6 C         140.2587  141.5440  162.3736 C.ar    1  UNL1        0.0583
      7 C         141.3481  141.8768  160.0386 C.2     1  UNL1        0.3780
      8 N         142.5137  142.8118  159.9066 N.2     1  UNL1       -0.0308
      9 C         143.4419  142.2520  158.8698 C.2     1  UNL1        0.2318
     10 C         144.7495  142.7432  158.3232 C.2     1  UNL1        0.0456
     11 C         145.4653  141.9535  157.2679 C.2     1  UNL1       -0.0219
     12 C         146.7731  142.4446  156.7213 C.3     1  UNL1        0.0308
     13 C         144.8735  140.6725  156.7590 C.2     1  UNL1       -0.0214
     14 C         143.5658  140.1814  157.3055 C.3     1  UNL1        0.1034
     15 C         142.8500  140.9711  158.3609 C.2     1  UNL1        0.2178
     16 N         141.5560  140.7393  159.0833 N.2     1  UNL1       -0.0346
     17 N         141.5059  140.8664  162.8589 N.pl3   1  UNL1       -0.3071
     18 C         142.6441  141.6840  163.3936 C.3     1  UNL1        0.0921
     19 C         143.8913  141.0065  163.8789 C.3     1  UNL1        0.0369
     20 C         144.0002  139.5112  163.8295 C.3     1  UNL1        0.0542
     21 N         145.2473  138.8336  164.3148 N.3     1  UNL1       -0.3221
     22 C         142.8619  138.6935  163.2949 C.3     1  UNL1        0.0369
     23 C         141.6148  139.3712  162.8096 C.3     1  UNL1        0.0921
     24 H         145.9110  139.5362  164.6410 H       1  UNL1        0.1188
     25 H         145.6639  138.3009  163.5513 H       1  UNL1        0.1188
     26 C         137.7378  138.2392  166.9150 C.3     1  UNL1        0.0310
     27 C         138.4930  139.4725  166.5169 C.ar    1  UNL1       -0.0222
     28 C         139.3271  140.2006  167.5290 C.ar    1  UNL1       -0.0085
     29 C         140.0823  141.4340  167.1309 C.ar    1  UNL1       -0.0222
     30 C         140.9163  142.1621  168.1429 C.3     1  UNL1        0.0310
     31 C         140.0034  141.9393  165.7207 C.ar    1  UNL1       -0.0042
     32 C         139.1693  141.2112  164.7087 C.ar    1  UNL1        0.0021
     33 C         138.4141  139.9778  165.1068 C.ar    1  UNL1       -0.0042
@<TRIPOS>BOND
     1    26    27    1
     2    27    28   ar
     3    28    29   ar
     4    29    30    1
     5    29    31   ar
     6    31    32   ar
     7    32     1    1
     8     1     2   ar
     9     2     3   ar
    10     3     4   ar
    11     4     5   ar
    12     5     7    1
    13     7     8    2
    14     8     9    1
    15     9    10    2
    16    10    11    1
    17    11    12    1
    18    11    13    2
    19    13    14    1
    20    14    15    1
    21    15    16    2
    22     5     6   ar
    23     6    17    1
    24    17    18    1
    25    18    19    1
    26    19    20    1
    27    20    21    1
    28    20    22    1
    29    22    23    1
    30    32    33   ar
    31    33    27   ar
    32     6     1   ar
    33    23    17    1
    34    16     7    1
    35    15     9    1
    36    21    24    1
    37    21    25    1
@<TRIPOS>MOLECULE
*****
 33 37 0 0 0
SMALL
GASTEIGER

@<TRIPOS>ATOM
      1 C         139.1064  141.7165  163.2399 C.ar    1  UNL1        0.0327
      2 C         137.8496  142.3637  162.7386 C.ar    1  UNL1        0.1001
      3 N         137.7687  142.8464  161.3207 N.ar    1  UNL1       -0.2420
      4 C         138.9446  142.6817  160.4041 C.ar    1  UNL1        0.1078
      5 C         140.2015  142.0344  160.9055 C.ar    1  UNL1        0.1207
      6 C         140.2823  141.5518  162.3234 C.ar    1  UNL1        0.0583
      7 C         141.3774  141.8698  159.9889 C.2     1  UNL1        0.3780
      8 N         142.5446  142.8051  159.8754 N.2     1  UNL1       -0.0308
      9 C         143.4812  142.2543  158.8413 C.2     1  UNL1        0.2318
     10 C         144.7937  142.7496  158.3104 C.2     1  UNL1        0.0456
     11 C         145.5179  141.9691  157.2539 C.2     1  UNL1       -0.0219
     12 C         146.8305  142.4644  156.7229 C.3     1  UNL1        0.0308
     13 C         144.9296  140.6934  156.7282 C.2     1  UNL1       -0.0214
     14 C         143.6171  140.1981  157.2591 C.3     1  UNL1        0.1034
     15 C         142.8929  140.9785  158.3157 C.2     1  UNL1        0.2178
     16 N         141.5927  140.7409  159.0249 N.2     1  UNL1       -0.0346
     17 N         141.5392  140.9045  162.8248 N.pl3   1  UNL1       -0.3071
     18 C         142.6549  141.7501  163.3634 C.3     1  UNL1        0.0921
     19 C         143.9117  141.1029  163.8648 C.3     1  UNL1        0.0369
     20 C         144.0529  139.6099  163.8276 C.3     1  UNL1        0.0542
     21 N         145.3097  138.9627  164.3290 N.3     1  UNL1       -0.3221
     22 C         142.9371  138.7643  163.2890 C.3     1  UNL1        0.0369
     23 C         141.6803  139.4116  162.7876 C.3     1  UNL1        0.0921
     24 H         145.9553  139.6816  164.6558 H       1  UNL1        0.1188
     25 H         145.7444  138.4334  163.5732 H       1  UNL1        0.1188
     26 C         140.9123  142.2587  168.0819 C.3     1  UNL1        0.0310
     27 C         140.0903  141.5050  167.0788 C.ar    1  UNL1       -0.0222
     28 C         139.3492  140.2685  167.4938 C.ar    1  UNL1       -0.0085
     29 C         138.5272  139.5147  166.4907 C.ar    1  UNL1       -0.0222
     30 C         137.7861  138.2784  166.9055 C.3     1  UNL1        0.0310
     31 C         138.4462  139.9974  165.0727 C.ar    1  UNL1       -0.0042
     32 C         139.1873  141.2338  164.6579 C.ar    1  UNL1        0.0021
     33 C         140.0093  141.9876  165.6609 C.ar    1  UNL1       -0.0042
@<TRIPOS>BOND
     1    26    27    1
     2    27    28   ar
     3    28    29   ar
     4    29    30    1
     5    29    31   ar
     6    31    32   ar
     7    32     1    1
     8     1     2   ar
     9     2     3   ar
    10     3     4   ar
    11     4     5   ar
    12     5     7    1
    13     7     8    2
    14     8     9    1
    15     9    10    2
    16    10    11    1
    17    11    12    1
    18    11    13    2
    19    13    14    1
    20    14    15    1
    21    15    16    2
    22     5     6   ar
    23     6    17    1
    24    17    18    1
    25    18    19    1
    26    19    20    1
    27    20    21    1
    28    20    22    1
    29    22    23    1
    30    32    33   ar
    31    33    27   ar
    32     6     1   ar
    33    23    17    1
    34    16     7    1
    35    15     9    1
    36    21    24    1
    37    21    25    1
@<TRIPOS>MOLECULE
*****
 33 37 0 0 0
SMALL
GASTEIGER

@<TRIPOS>ATOM
      1 C         139.6293  140.5996  167.8153 C.ar    1  UNL1        0.0327
      2 C         138.7613  139.6130  168.5385 C.ar    1  UNL1        0.1001
      3 N         137.9385  138.6279  167.7625 N.ar    1  UNL1       -0.2420
      4 C         137.9837  138.6292  166.2631 C.ar    1  UNL1        0.1078
      5 C         138.8517  139.6158  165.5399 C.ar    1  UNL1        0.1207
      6 C         139.6746  140.6010  166.3160 C.ar    1  UNL1        0.0583
      7 C         138.8970  139.6172  164.0406 C.2     1  UNL1        0.3780
      8 N         138.1138  140.5216  163.1357 N.2     1  UNL1       -0.0308
      9 C         138.4661  140.1778  161.7187 C.2     1  UNL1        0.2318
     10 C         138.0048  140.7374  160.4058 C.2     1  UNL1        0.0456
     11 C         138.5444  140.1802  159.1219 C.2     1  UNL1       -0.0219
     12 C         138.0831  140.7398  157.8088 C.3     1  UNL1        0.0308
     13 C         139.5453  139.0633  159.1511 C.2     1  UNL1       -0.0214
     14 C         140.0065  138.5037  160.4641 C.3     1  UNL1        0.1034
     15 C         139.4670  139.0609  161.7479 C.2     1  UNL1        0.2178
     16 N         139.7332  138.7145  163.1828 N.2     1  UNL1       -0.0346
     17 N         140.5426  141.5877  165.5927 N.pl3   1  UNL1       -0.3071
     18 C         140.0286  142.9663  165.3010 C.3     1  UNL1        0.0921
     19 C         140.8966  143.9530  164.5778 C.3     1  UNL1        0.0369
     20 C         142.2787  143.5610  164.1462 C.3     1  UNL1        0.0542
     21 N         143.1467  144.5476  163.4230 N.3     1  UNL1       -0.3221
     22 C         142.7928  142.1823  164.4379 C.3     1  UNL1        0.0369
     23 C         141.9247  141.1957  165.1612 C.3     1  UNL1        0.0921
     24 H         142.6416  145.4267  163.3109 H       1  UNL1        0.1188
     25 H         143.3912  144.1765  162.5050 H       1  UNL1        0.1188
     26 C         140.0145  145.0844  170.4111 C.3     1  UNL1        0.0310
     27 C         140.6447  143.8273  169.8892 C.ar    1  UNL1       -0.0222
     28 C         142.0979  143.5554  170.1434 C.ar    1  UNL1       -0.0085
     29 C         142.7282  142.2983  169.6216 C.ar    1  UNL1       -0.0222
     30 C         144.1812  142.0264  169.8757 C.3     1  UNL1        0.0310
     31 C         141.9053  141.3130  168.8455 C.ar    1  UNL1       -0.0042
     32 C         140.4522  141.5849  168.5913 C.ar    1  UNL1        0.0021
     33 C         139.8220  142.8420  169.1132 C.ar    1  UNL1       -0.0042
@<TRIPOS>BOND
     1    26    27    1
     2    27    28   ar
     3    28    29   ar
     4    29    30    1
     5    29    31   ar
     6    31    32   ar
     7    32     1    1
     8     1     2   ar
     9     2     3   ar
    10     3     4   ar
    11     4     5   ar
    12     5     7    1
    13     7     8    2
    14     8     9    1
    15     9    10    2
    16    10    11    1
    17    11    12    1
    18    11    13    2
    19    13    14    1
    20    14    15    1
    21    15    16    2
    22     5     6   ar
    23     6    17    1
    24    17    18    1
    25    18    19    1
    26    19    20    1
    27    20    21    1
    28    20    22    1
    29    22    23    1
    30    32    33   ar
    31    33    27   ar
    32     6     1   ar
    33    23    17    1
    34    16     7    1
    35    15     9    1
    36    21    24    1
    37    21    25    1
@<TRIPOS>MOLECULE
*****
 33 37 0 0 0
SMALL
GASTEIGER

@<TRIPOS>ATOM
      1 C         141.9193  140.0467  167.0144 C.ar    1  UNL1        0.0327
      2 C         142.9644  139.0392  167.3920 C.ar    1  UNL1        0.1001
      3 N         143.8153  138.4074  166.3305 N.ar    1  UNL1       -0.2420
      4 C         143.6210  138.7831  164.8914 C.ar    1  UNL1        0.1078
      5 C         142.5759  139.7906  164.5137 C.ar    1  UNL1        0.1207
      6 C         141.7251  140.4224  165.5752 C.ar    1  UNL1        0.0583
      7 C         142.3817  140.1663  163.0746 C.2     1  UNL1        0.3780
      8 N         141.5195  139.4427  162.0831 N.2     1  UNL1       -0.0308
      9 C         141.6205  140.1607  160.7700 C.2     1  UNL1        0.2318
     10 C         140.9900  139.9024  159.4337 C.2     1  UNL1        0.0456
     11 C         141.2840  140.8114  158.2774 C.2     1  UNL1       -0.0219
     12 C         140.6535  140.5531  156.9410 C.3     1  UNL1        0.0308
     13 C         142.2086  141.9788  158.4573 C.2     1  UNL1       -0.0214
     14 C         142.8391  142.2372  159.7936 C.3     1  UNL1        0.1034
     15 C         142.5451  141.3281  160.9499 C.2     1  UNL1        0.2178
     16 N         143.0155  141.3315  162.3743 N.2     1  UNL1       -0.0346
     17 N         140.6799  141.4300  165.1976 N.pl3   1  UNL1       -0.3071
     18 C         139.2676  140.9890  164.9507 C.3     1  UNL1        0.0921
     19 C         138.2224  141.9965  164.5731 C.3     1  UNL1        0.0369
     20 C         138.5896  143.4450  164.4424 C.3     1  UNL1        0.0542
     21 N         137.5444  144.4525  164.0648 N.3     1  UNL1       -0.3221
     22 C         140.0019  143.8860  164.6893 C.3     1  UNL1        0.0369
     23 C         141.0470  142.8784  165.0669 C.3     1  UNL1        0.0921
     24 H         136.6489  143.9814  163.9362 H       1  UNL1        0.1188
     25 H         137.8143  144.9129  163.1955 H       1  UNL1        0.1188
     26 C         137.9426  139.7742  170.3478 C.3     1  UNL1        0.0310
     27 C         139.0800  140.5423  169.7426 C.ar    1  UNL1       -0.0222
     28 C         139.3665  141.9423  170.1989 C.ar    1  UNL1       -0.0085
     29 C         140.5040  142.7103  169.5937 C.ar    1  UNL1       -0.0222
     30 C         140.7905  144.1102  170.0499 C.3     1  UNL1        0.0310
     31 C         141.3549  142.0785  168.5322 C.ar    1  UNL1       -0.0042
     32 C         141.0684  140.6786  168.0759 C.ar    1  UNL1        0.0021
     33 C         139.9309  139.9105  168.6811 C.ar    1  UNL1       -0.0042
@<TRIPOS>BOND
     1    26    27    1
     2    27    28   ar
     3    28    29   ar
     4    29    30    1
     5    29    31   ar
     6    31    32   ar
     7    32     1    1
     8     1     2   ar
     9     2     3   ar
    10     3     4   ar
    11     4     5   ar
    12     5     7    1
    13     7     8    2
    14     8     9    1
    15     9    10    2
    16    10    11    1
    17    11    12    1
    18    11    13    2
    19    13    14    1
    20    14    15    1
    21    15    16    2
    22     5     6   ar
    23     6    17    1
    24    17    18    1
    25    18    19    1
    26    19    20    1
    27    20    21    1
    28    20    22    1
    29    22    23    1
    30    32    33   ar
    31    33    27   ar
    32     6     1   ar
    33    23    17    1
    34    16     7    1
    35    15     9    1
    36    21    24    1
    37    21    25    1
@<TRIPOS>MOLECULE
*****
 33 37 0 0 0
SMALL
GASTEIGER

@<TRIPOS>ATOM
      1 C         139.6795  142.3944  161.4496 C.ar    1  UNL1        0.0327
      2 C         138.1862  142.4847  161.3416 C.ar    1  UNL1        0.1001
      3 N         137.3367  142.3666  162.5722 N.ar    1  UNL1       -0.2420
      4 C         137.9807  142.1581  163.9108 C.ar    1  UNL1        0.1078
      5 C         139.4740  142.0678  164.0188 C.ar    1  UNL1        0.1207
      6 C         140.3234  142.1860  162.7882 C.ar    1  UNL1        0.0583
      7 C         140.1179  141.8593  165.3574 C.2     1  UNL1        0.3780
      8 N         140.6680  140.5651  165.8793 N.2     1  UNL1       -0.0308
      9 C         141.2149  140.8143  167.2536 C.2     1  UNL1        0.2318
     10 C         141.8785  139.9096  168.2491 C.2     1  UNL1        0.0456
     11 C         142.3301  140.4533  169.5721 C.2     1  UNL1       -0.0219
     12 C         142.9938  139.5485  170.5677 C.3     1  UNL1        0.0308
     13 C         142.1181  141.9016  169.8997 C.2     1  UNL1       -0.0214
     14 C         141.4545  142.8063  168.9042 C.3     1  UNL1        0.1034
     15 C         141.0029  142.2627  167.5812 C.2     1  UNL1        0.2178
     16 N         140.3249  142.9085  166.4093 N.2     1  UNL1       -0.0346
     17 N         141.8169  142.0957  162.8962 N.pl3   1  UNL1       -0.3071
     18 C         142.4974  140.7632  162.7887 C.3     1  UNL1        0.0921
     19 C         143.9907  140.6729  162.8967 C.3     1  UNL1        0.0369
     20 C         144.8036  141.9150  163.1121 C.3     1  UNL1        0.0542
     21 N         146.2970  141.8247  163.2200 N.3     1  UNL1       -0.3221
     22 C         144.1232  143.2474  163.2195 C.3     1  UNL1        0.0369
     23 C         142.6297  143.3378  163.1115 C.3     1  UNL1        0.0921
     24 H         146.5865  140.8512  163.1250 H       1  UNL1        0.1188
     25 H         146.5944  142.1807  164.1284 H       1  UNL1        0.1188
     26 C         142.1115  145.3390  157.9261 C.3     1  UNL1        0.0310
     27 C         141.7450  143.9849  158.4572 C.ar    1  UNL1       -0.0222
     28 C         142.2280  142.7490  157.7577 C.ar    1  UNL1       -0.0085
     29 C         141.8614  141.3949  158.2888 C.ar    1  UNL1       -0.0222
     30 C         142.3444  140.1590  157.5893 C.3     1  UNL1        0.0310
     31 C         141.0119  141.2767  159.5194 C.ar    1  UNL1       -0.0042
     32 C         140.5290  142.5126  160.2189 C.ar    1  UNL1        0.0021
     33 C         140.8955  143.8667  159.6878 C.ar    1  UNL1       -0.0042
@<TRIPOS>BOND
     1    26    27    1
     2    27    28   ar
     3    28    29   ar
     4    29    30    1
     5    29    31   ar
     6    31    32   ar
     7    32     1    1
     8     1     2   ar
     9     2     3   ar
    10     3     4   ar
    11     4     5   ar
    12     5     7    1
    13     7     8    2
    14     8     9    1
    15     9    10    2
    16    10    11    1
    17    11    12    1
    18    11    13    2
    19    13    14    1
    20    14    15    1
    21    15    16    2
    22     5     6   ar
    23     6    17    1
    24    17    18    1
    25    18    19    1
    26    19    20    1
    27    20    21    1
    28    20    22    1
    29    22    23    1
    30    32    33   ar
    31    33    27   ar
    32     6     1   ar
    33    23    17    1
    34    16     7    1
    35    15     9    1
    36    21    24    1
    37    21    25    1
@<TRIPOS>MOLECULE
*****
 33 37 0 0 0
SMALL
GASTEIGER

@<TRIPOS>ATOM
      1 C         143.3950  141.6610  161.5579 C.ar    1  UNL1        0.0327
      2 C         144.8924  141.7344  161.5108 C.ar    1  UNL1        0.1001
      3 N         145.6831  141.7474  162.7854 N.ar    1  UNL1       -0.2420
      4 C         144.9764  141.6871  164.1071 C.ar    1  UNL1        0.1078
      5 C         143.4789  141.6137  164.1542 C.ar    1  UNL1        0.1207
      6 C         142.6882  141.6007  162.8796 C.ar    1  UNL1        0.0583
      7 C         142.7722  141.5534  165.4759 C.2     1  UNL1        0.3780
      8 N         142.0947  142.6996  166.1666 N.2     1  UNL1       -0.0308
      9 C         141.5227  142.1909  167.4565 C.2     1  UNL1        0.2318
     10 C         140.7487  142.8690  168.5479 C.2     1  UNL1        0.0456
     11 C         140.2986  142.0864  169.7457 C.2     1  UNL1       -0.0219
     12 C         139.5246  142.7645  170.8371 C.3     1  UNL1        0.0308
     13 C         140.6225  140.6256  169.8522 C.2     1  UNL1       -0.0214
     14 C         141.3965  139.9475  168.7609 C.3     1  UNL1        0.1034
     15 C         141.8466  140.7301  167.5630 C.2     1  UNL1        0.2178
     16 N         142.6188  140.3361  166.3389 N.2     1  UNL1       -0.0346
     17 N         141.1907  141.5273  162.9267 N.pl3   1  UNL1       -0.3071
     18 C         140.5054  140.1931  162.9452 C.3     1  UNL1        0.0921
     19 C         139.0080  140.1197  162.9923 C.3     1  UNL1        0.0369
     20 C         138.1958  141.3805  163.0208 C.3     1  UNL1        0.0542
     21 N         136.6983  141.3071  163.0679 N.3     1  UNL1       -0.3221
     22 C         138.8811  142.7147  163.0023 C.3     1  UNL1        0.0369
     23 C         140.3786  142.7881  162.9552 C.3     1  UNL1        0.0921
     24 H         136.4059  140.3299  163.0749 H       1  UNL1        0.1188
     25 H         136.3092  141.7727  162.2480 H       1  UNL1        0.1188
     26 C         141.1368  139.0267  157.6900 C.3     1  UNL1        0.0310
     27 C         141.4752  140.3308  158.3494 C.ar    1  UNL1       -0.0222
     28 C         141.0227  141.6219  157.7341 C.ar    1  UNL1       -0.0085
     29 C         141.3610  142.9260  158.3935 C.ar    1  UNL1       -0.0222
     30 C         140.9086  144.2170  157.7784 C.3     1  UNL1        0.0310
     31 C         142.1518  142.9390  159.6681 C.ar    1  UNL1       -0.0042
     32 C         142.6042  141.6480  160.2833 C.ar    1  UNL1        0.0021
     33 C         142.2659  140.3439  159.6239 C.ar    1  UNL1       -0.0042
@<TRIPOS>BOND
     1    26    27    1
     2    27    28   ar
     3    28    29   ar
     4    29    30    1
     5    29    31   ar
     6    31    32   ar
     7    32     1    1
     8     1     2   ar
     9     2     3   ar
    10     3     4   ar
    11     4     5   ar
    12     5     7    1
    13     7     8    2
    14     8     9    1
    15     9    10    2
    16    10    11    1
    17    11    12    1
    18    11    13    2
    19    13    14    1
    20    14    15    1
    21    15    16    2
    22     5     6   ar
    23     6    17    1
    24    17    18    1
    25    18    19    1
    26    19    20    1
    27    20    21    1
    28    20    22    1
    29    22    23    1
    30    32    33   ar
    31    33    27   ar
    32     6     1   ar
    33    23    17    1
    34    16     7    1
    35    15     9    1
    36    21    24    1
    37    21    25    1
@<TRIPOS>MOLECULE
*****
 33 37 0 0 0
SMALL
GASTEIGER

@<TRIPOS>ATOM
      1 C         143.4015  141.6746  161.5534 C.ar    1  UNL1        0.0327
      2 C         144.8987  141.7491  161.5028 C.ar    1  UNL1        0.1001
      3 N         145.6926  141.7596  162.7754 N.ar    1  UNL1       -0.2420
      4 C         144.9891  141.6955  164.0987 C.ar    1  UNL1        0.1078
      5 C         143.4919  141.6210  164.1494 C.ar    1  UNL1        0.1207
      6 C         142.6980  141.6105  162.8767 C.ar    1  UNL1        0.0583
      7 C         142.7884  141.5569  165.4726 C.2     1  UNL1        0.3780
      8 N         142.0916  142.6954  166.1568 N.2     1  UNL1       -0.0308
      9 C         141.5308  142.1852  167.4511 C.2     1  UNL1        0.2318
     10 C         140.7465  142.8567  168.5392 C.2     1  UNL1        0.0456
     11 C         140.3125  142.0742  169.7430 C.2     1  UNL1       -0.0219
     12 C         139.5281  142.7456  170.8312 C.3     1  UNL1        0.0308
     13 C         140.6628  140.6203  169.8588 C.2     1  UNL1       -0.0214
     14 C         141.4471  139.9488  168.7707 C.3     1  UNL1        0.1034
     15 C         141.8811  140.7313  167.5669 C.2     1  UNL1        0.2178
     16 N         142.6583  140.3430  166.3441 N.2     1  UNL1       -0.0346
     17 N         141.2007  141.5360  162.9273 N.pl3   1  UNL1       -0.3071
     18 C         140.5167  140.2013  162.9542 C.3     1  UNL1        0.0921
     19 C         139.0195  140.1267  163.0048 C.3     1  UNL1        0.0369
     20 C         138.2061  141.3868  163.0285 C.3     1  UNL1        0.0542
     21 N         136.7088  141.3123  163.0790 N.3     1  UNL1       -0.3221
     22 C         138.8901  142.7216  163.0016 C.3     1  UNL1        0.0369
     23 C         140.3874  142.7961  162.9510 C.3     1  UNL1        0.0921
     24 H         136.4173  140.3349  163.0917 H       1  UNL1        0.1188
     25 H         136.3175  141.7732  162.2576 H       1  UNL1        0.1188
     26 C         140.9039  144.2383  157.7865 C.3     1  UNL1        0.0310
     27 C         141.3588  142.9461  158.3973 C.ar    1  UNL1       -0.0222
     28 C         141.0198  141.6433  157.7354 C.ar    1  UNL1       -0.0085
     29 C         141.4747  140.3510  158.3462 C.ar    1  UNL1       -0.0222
     30 C         141.1357  139.0484  157.6844 C.3     1  UNL1        0.0310
     31 C         142.2686  140.3615  159.6189 C.ar    1  UNL1       -0.0042
     32 C         142.6076  141.6642  160.2807 C.ar    1  UNL1        0.0021
     33 C         142.1527  142.9564  159.6699 C.ar    1  UNL1       -0.0042
@<TRIPOS>BOND
     1    26    27    1
     2    27    28   ar
     3    28    29   ar
     4    29    30    1
     5    29    31   ar
     6    31    32   ar
     7    32     1    1
     8     1     2   ar
     9     2     3   ar
    10     3     4   ar
    11     4     5   ar
    12     5     7    1
    13     7     8    2
    14     8     9    1
    15     9    10    2
    16    10    11    1
    17    11    12    1
    18    11    13    2
    19    13    14    1
    20    14    15    1
    21    15    16    2
    22     5     6   ar
    23     6    17    1
    24    17    18    1
    25    18    19    1
    26    19    20    1
    27    20    21    1
    28    20    22    1
    29    22    23    1
    30    32    33   ar
    31    33    27   ar
    32     6     1   ar
    33    23    17    1
    34    16     7    1
    35    15     9    1
    36    21    24    1
    37    21    25    1
@<TRIPOS>MOLECULE
*****
 33 37 0 0 0
SMALL
GASTEIGER

@<TRIPOS>ATOM
      1 C         139.9719  141.9011  160.9564 C.ar    1  UNL1        0.0327
      2 C         138.6875  142.5315  160.5061 C.ar    1  UNL1        0.1001
      3 N         137.6848  142.9970  161.5198 N.ar    1  UNL1       -0.2420
      4 C         137.9664  142.8322  162.9839 C.ar    1  UNL1        0.1078
      5 C         139.2508  142.2018  163.4342 C.ar    1  UNL1        0.1207
      6 C         140.2536  141.7362  162.4205 C.ar    1  UNL1        0.0583
      7 C         139.5324  142.0370  164.8983 C.2     1  UNL1        0.3780
      8 N         139.3800  140.7711  165.6884 N.2     1  UNL1       -0.0308
      9 C         139.7693  141.0608  167.1078 C.2     1  UNL1        0.2318
     10 C         139.8167  140.1956  168.3321 C.2     1  UNL1        0.0456
     11 C         140.2571  140.7753  169.6436 C.2     1  UNL1       -0.0219
     12 C         140.3045  139.9101  170.8680 C.3     1  UNL1        0.0308
     13 C         140.6501  142.2203  169.7306 C.2     1  UNL1       -0.0214
     14 C         140.6027  143.0856  168.5063 C.3     1  UNL1        0.1034
     15 C         140.1623  142.5058  167.1949 C.2     1  UNL1        0.2178
     16 N         140.0159  143.1091  165.8293 N.2     1  UNL1       -0.0346
     17 N         141.5381  141.1058  162.8709 N.pl3   1  UNL1       -0.3071
     18 C         141.6232  139.6182  163.0437 C.3     1  UNL1        0.0921
     19 C         142.9076  138.9878  163.4940 C.3     1  UNL1        0.0369
     20 C         144.1069  139.8450  163.7715 C.3     1  UNL1        0.0542
     21 N         145.3913  139.2145  164.2218 N.3     1  UNL1       -0.3221
     22 C         144.0218  141.3325  163.5987 C.3     1  UNL1        0.0369
     23 C         142.7373  141.9630  163.1484 C.3     1  UNL1        0.0921
     24 H         145.2701  138.2037  164.2851 H       1  UNL1        0.1188
     25 H         145.6489  139.5840  165.1370 H       1  UNL1        0.1188
     26 C         141.7952  138.1950  157.8035 C.3     1  UNL1        0.0310
     27 C         141.8864  139.5824  158.3663 C.ar    1  UNL1       -0.0222
     28 C         142.9804  140.5043  157.9153 C.ar    1  UNL1       -0.0085
     29 C         143.0716  141.8917  158.4781 C.ar    1  UNL1       -0.0222
     30 C         144.1656  142.8135  158.0271 C.3     1  UNL1        0.0310
     31 C         142.0688  142.3573  159.4918 C.ar    1  UNL1       -0.0042
     32 C         140.9748  141.4355  159.9427 C.ar    1  UNL1        0.0021
     33 C         140.8836  140.0480  159.3800 C.ar    1  UNL1       -0.0042
@<TRIPOS>BOND
     1    26    27    1
     2    27    28   ar
     3    28    29   ar
     4    29    30    1
     5    29    31   ar
     6    31    32   ar
     7    32     1    1
     8     1     2   ar
     9     2     3   ar
    10     3     4   ar
    11     4     5   ar
    12     5     7    1
    13     7     8    2
    14     8     9    1
    15     9    10    2
    16    10    11    1
    17    11    12    1
    18    11    13    2
    19    13    14    1
    20    14    15    1
    21    15    16    2
    22     5     6   ar
    23     6    17    1
    24    17    18    1
    25    18    19    1
    26    19    20    1
    27    20    21    1
    28    20    22    1
    29    22    23    1
    30    32    33   ar
    31    33    27   ar
    32     6     1   ar
    33    23    17    1
    34    16     7    1
    35    15     9    1
    36    21    24    1
    37    21    25    1
@<TRIPOS>MOLECULE
*****
 33 37 0 0 0
SMALL
GASTEIGER

@<TRIPOS>ATOM
      1 C         139.7435  140.0034  167.0667 C.ar    1  UNL1        0.0327
      2 C         138.4828  139.2403  167.3462 C.ar    1  UNL1        0.1001
      3 N         137.7529  138.5616  166.2253 N.ar    1  UNL1       -0.2420
      4 C         138.2836  138.6460  164.8249 C.ar    1  UNL1        0.1078
      5 C         139.5443  139.4091  164.5454 C.ar    1  UNL1        0.1207
      6 C         140.2743  140.0878  165.6663 C.ar    1  UNL1        0.0583
      7 C         140.0751  139.4935  163.1450 C.2     1  UNL1        0.3780
      8 N         140.8546  138.4287  162.4318 N.2     1  UNL1       -0.0308
      9 C         141.1808  138.9346  161.0579 C.2     1  UNL1        0.2318
     10 C         141.9293  138.3190  159.9131 C.2     1  UNL1        0.0456
     11 C         142.1000  139.0808  158.6324 C.2     1  UNL1       -0.0219
     12 C         142.8486  138.4652  157.4875 C.3     1  UNL1        0.0308
     13 C         141.5222  140.4584  158.4964 C.2     1  UNL1       -0.0214
     14 C         140.7736  141.0740  159.6412 C.3     1  UNL1        0.1034
     15 C         140.6029  140.3122  160.9219 C.2     1  UNL1        0.2178
     16 N         139.9196  140.6576  162.2118 N.2     1  UNL1       -0.0346
     17 N         141.5351  140.8510  165.3868 N.pl3   1  UNL1       -0.3071
     18 C         141.4809  142.3336  165.1654 C.3     1  UNL1        0.0921
     19 C         142.7415  143.0968  164.8859 C.3     1  UNL1        0.0369
     20 C         144.0566  142.3774  164.8278 C.3     1  UNL1        0.0542
     21 N         145.3172  143.1406  164.5483 N.3     1  UNL1       -0.3221
     22 C         144.1108  140.8948  165.0491 C.3     1  UNL1        0.0369
     23 C         142.8500  140.1316  165.3286 C.3     1  UNL1        0.0921
     24 H         145.0962  144.1286  164.4246 H       1  UNL1        0.1188
     25 H         145.7515  142.7803  163.6986 H       1  UNL1        0.1188
     26 C         143.3175  139.8789  170.8365 C.3     1  UNL1        0.0310
     27 C         142.2605  140.6199  170.0725 C.ar    1  UNL1       -0.0222
     28 C         141.9336  142.0397  170.4294 C.ar    1  UNL1       -0.0085
     29 C         140.8767  142.7808  169.6654 C.ar    1  UNL1       -0.0222
     30 C         140.5497  144.2005  170.0222 C.3     1  UNL1        0.0310
     31 C         140.1466  142.1020  168.5445 C.ar    1  UNL1       -0.0042
     32 C         140.4736  140.6822  168.1876 C.ar    1  UNL1        0.0021
     33 C         141.5305  139.9412  168.9516 C.ar    1  UNL1       -0.0042
@<TRIPOS>BOND
     1    26    27    1
     2    27    28   ar
     3    28    29   ar
     4    29    30    1
     5    29    31   ar
     6    31    32   ar
     7    32     1    1
     8     1     2   ar
     9     2     3   ar
    10     3     4   ar
    11     4     5   ar
    12     5     7    1
    13     7     8    2
    14     8     9    1
    15     9    10    2
    16    10    11    1
    17    11    12    1
    18    11    13    2
    19    13    14    1
    20    14    15    1
    21    15    16    2
    22     5     6   ar
    23     6    17    1
    24    17    18    1
    25    18    19    1
    26    19    20    1
    27    20    21    1
    28    20    22    1
    29    22    23    1
    30    32    33   ar
    31    33    27   ar
    32     6     1   ar
    33    23    17    1
    34    16     7    1
    35    15     9    1
    36    21    24    1
    37    21    25    1
