@<TRIPOS>MOLECULE
*****
 31 34 0 0 0
SMALL
GASTEIGER

@<TRIPOS>ATOM
      1 C         139.7433  144.5807  161.7337 C.ar    1  UNL1        0.1412
      2 C         138.6386  144.7090  162.7404 C.ar    1  UNL1        0.0710
      3 S         139.1370  144.1668  164.0472 S.2     1  UNL1       -0.0670
      4 C         140.5497  143.7034  163.8481 C.ar    1  UNL1        0.1122
      5 N         140.9244  143.9592  162.4184 N.ar    1  UNL1       -0.2259
      6 C         141.4327  143.0915  164.8950 C.3     1  UNL1        0.1549
      7 C         139.9601  142.8063  164.8957 C.3     1  UNL1        0.1705
      8 O         139.3705  141.9092  165.9433 O.3     1  UNL1       -0.3538
      9 C         140.2534  141.2974  166.9902 C.3     1  UNL1        0.1155
     10 C         139.6637  140.4002  168.0379 C.3     1  UNL1        0.0320
     11 C         141.7260  141.5826  166.9896 C.3     1  UNL1        0.0328
     12 C         142.3156  142.4797  165.9420 C.3     1  UNL1        0.0426
     13 C         143.7883  142.7650  165.9412 C.3     1  UNL1        0.0673
     14 S         144.3779  143.6621  164.8936 S.3     1  UNL1       -0.0807
     15 C         143.4950  144.2740  163.8467 C.2     1  UNL1        0.1483
     16 N         144.0847  145.1711  162.7991 N.pl3   1  UNL1       -0.3380
     17 N         142.0224  143.9887  163.8474 N.2     1  UNL1       -0.2464
     18 H         145.0512  145.3583  162.7986 H       1  UNL1        0.1442
     19 H         143.5052  145.5727  162.1119 H       1  UNL1        0.1442
     20 C         140.9387  145.1196  159.4909 C.2     1  UNL1        0.2506
     21 O         142.2643  144.8193  160.1253 O.2     1  UNL1       -0.2698
     22 N         139.6782  145.0003  160.2952 N.am    1  UNL1       -0.2654
     23 H         138.8081  145.1974  159.8788 H       1  UNL1        0.1566
     24 C         140.7432  146.3785  155.1749 C.ar    1  UNL1        0.1387
     25 C         139.6786  146.8214  156.1344 C.ar    1  UNL1        0.0370
     26 C         139.7438  146.4018  157.5730 C.ar    1  UNL1        0.0076
     27 C         140.8736  145.5392  158.0523 C.ar    1  UNL1        0.0539
     28 C         141.9382  145.0963  157.0929 C.ar    1  UNL1        0.0076
     29 C         141.8729  145.5159  155.6542 C.ar    1  UNL1        0.0370
     30 C         140.4367  148.2362  153.3848 C.3     1  UNL1        0.2525
     31 O         140.6780  146.7981  153.7364 O.3     1  UNL1       -0.4714
@<TRIPOS>BOND
     1    30    31    1
     2    31    24    1
     3    24    25   ar
     4    25    26   ar
     5    26    27   ar
     6    27    20    1
     7    20    21    2
     8    20    22   am
     9    22     1    1
    10     1     2   ar
    11     2     3   ar
    12     3     4   ar
    13     6     4    1
    14     6     7    1
    15     7     8    1
    16     8     9    1
    17     9    10    1
    18     9    11    1
    19    12    11    1
    20    12    13    1
    21    13    14    1
    22    14    15    1
    23    15    16    1
    24    15    17    2
    25     4     5   ar
    26    27    28   ar
    27    28    29   ar
    28    29    24   ar
    29     5     1   ar
    30    12     6    1
    31    17     6    1
    32    22    23    1
    33    16    18    1
    34    16    19    1
@<TRIPOS>MOLECULE
*****
 31 34 0 0 0
SMALL
GASTEIGER

@<TRIPOS>ATOM
      1 C         140.7647  144.0595  162.8783 C.ar    1  UNL1        0.1412
      2 C         140.0064  145.2773  162.4401 C.ar    1  UNL1        0.0710
      3 S         140.3241  145.5261  160.9953 S.2     1  UNL1       -0.0670
      4 C         141.2787  144.4621  160.5407 C.ar    1  UNL1        0.1122
      5 N         141.5510  143.5557  161.7045 N.ar    1  UNL1       -0.2259
      6 C         141.8591  144.3280  159.1641 C.3     1  UNL1        0.1549
      7 C         140.6962  145.2451  159.4017 C.3     1  UNL1        0.1705
      8 O         140.1137  146.0282  158.2626 O.3     1  UNL1       -0.3538
      9 C         140.6941  145.8941  156.8860 C.3     1  UNL1        0.1155
     10 C         140.1115  146.6772  155.7469 C.3     1  UNL1        0.0320
     11 C         141.8570  144.9770  156.6484 C.3     1  UNL1        0.0328
     12 C         142.4395  144.1940  157.7874 C.3     1  UNL1        0.0426
     13 C         143.6025  143.2768  157.5499 C.3     1  UNL1        0.0673
     14 S         144.1850  142.4938  158.6889 S.3     1  UNL1       -0.0807
     15 C         143.6046  142.6278  160.0656 C.2     1  UNL1        0.1483
     16 N         144.1872  141.8447  161.2046 N.pl3   1  UNL1       -0.3380
     17 N         142.4417  143.5449  160.3032 N.2     1  UNL1       -0.2464
     18 H         144.9505  141.2428  161.0487 H       1  UNL1        0.1442
     19 H         143.8063  141.9327  162.1082 H       1  UNL1        0.1442
     20 C         139.8769  142.2576  164.5259 C.2     1  UNL1        0.2506
     21 O         139.0369  141.6701  163.4309 O.2     1  UNL1       -0.2698
     22 N         140.7408  143.4522  164.2496 N.am    1  UNL1       -0.2654
     23 H         141.2922  143.8378  164.9684 H       1  UNL1        0.1566
     24 C         139.8055  140.4359  168.6402 C.ar    1  UNL1        0.1387
     25 C         140.4283  141.7838  168.4275 C.ar    1  UNL1        0.0370
     26 C         140.4521  142.3910  167.0561 C.ar    1  UNL1        0.0076
     27 C         139.8531  141.6503  165.8973 C.ar    1  UNL1        0.0539
     28 C         139.2303  140.3024  166.1100 C.ar    1  UNL1        0.0076
     29 C         139.2065  139.6952  167.4815 C.ar    1  UNL1        0.0370
     30 C         140.5736  140.4530  171.1220 C.3     1  UNL1        0.2525
     31 O         139.7817  139.8287  170.0115 O.3     1  UNL1       -0.4714
@<TRIPOS>BOND
     1    30    31    1
     2    31    24    1
     3    24    25   ar
     4    25    26   ar
     5    26    27   ar
     6    27    20    1
     7    20    21    2
     8    20    22   am
     9    22     1    1
    10     1     2   ar
    11     2     3   ar
    12     3     4   ar
    13     6     4    1
    14     6     7    1
    15     7     8    1
    16     8     9    1
    17     9    10    1
    18     9    11    1
    19    12    11    1
    20    12    13    1
    21    13    14    1
    22    14    15    1
    23    15    16    1
    24    15    17    2
    25     4     5   ar
    26    27    28   ar
    27    28    29   ar
    28    29    24   ar
    29     5     1   ar
    30    12     6    1
    31    17     6    1
    32    22    23    1
    33    16    18    1
    34    16    19    1
@<TRIPOS>MOLECULE
*****
 31 34 0 0 0
SMALL
GASTEIGER

@<TRIPOS>ATOM
      1 C         141.4610  145.0975  161.0412 C.ar    1  UNL1        0.1412
      2 C         140.4911  145.5547  162.0901 C.ar    1  UNL1        0.0710
      3 S         140.7860  144.8022  163.3538 S.2     1  UNL1       -0.0670
      4 C         141.9383  143.8799  163.0858 C.ar    1  UNL1        0.1122
      5 N         142.3554  144.0624  161.6566 N.ar    1  UNL1       -0.2259
      6 C         142.5636  142.9401  164.0736 C.3     1  UNL1        0.1549
      7 C         141.2694  143.6228  164.4035 C.3     1  UNL1        0.1705
      8 O         140.6005  143.3657  165.7212 O.3     1  UNL1       -0.3538
      9 C         141.2258  142.4259  166.7090 C.3     1  UNL1        0.1155
     10 C         140.5567  142.1689  168.0268 C.3     1  UNL1        0.0320
     11 C         142.5200  141.7432  166.3791 C.3     1  UNL1        0.0328
     12 C         143.1889  142.0003  165.0614 C.3     1  UNL1        0.0426
     13 C         144.4832  141.3176  164.7315 C.3     1  UNL1        0.0673
     14 S         145.1521  141.5747  163.4138 S.3     1  UNL1       -0.0807
     15 C         144.5268  142.5145  162.4260 C.2     1  UNL1        0.1483
     16 N         145.1958  142.7716  161.1082 N.pl3   1  UNL1       -0.3380
     17 N         143.2326  143.1972  162.7558 N.2     1  UNL1       -0.2464
     18 H         146.0453  142.3235  160.8917 H       1  UNL1        0.1442
     19 H         144.7855  143.3884  160.4598 H       1  UNL1        0.1442
     20 C         140.5340  145.0945  158.6142 C.2     1  UNL1        0.2506
     21 O         139.4787  144.1084  159.0184 O.2     1  UNL1       -0.2698
     22 N         141.5252  145.5891  159.6255 N.am    1  UNL1       -0.2654
     23 H         142.2179  146.2364  159.3602 H       1  UNL1        0.1566
     24 C         140.7269  146.5694  154.3670 C.ar    1  UNL1        0.1387
     25 C         141.6432  145.4726  154.8224 C.ar    1  UNL1        0.0370
     26 C         141.5789  144.9809  156.2381 C.ar    1  UNL1        0.0076
     27 C         140.5983  145.5862  157.1985 C.ar    1  UNL1        0.0539
     28 C         139.6820  146.6830  156.7431 C.ar    1  UNL1        0.0076
     29 C         139.7463  147.1746  155.3273 C.ar    1  UNL1        0.0370
     30 C         142.0915  147.0282  152.2044 C.3     1  UNL1        0.2525
     31 O         140.7912  147.0610  152.9514 O.3     1  UNL1       -0.4714
@<TRIPOS>BOND
     1    30    31    1
     2    31    24    1
     3    24    25   ar
     4    25    26   ar
     5    26    27   ar
     6    27    20    1
     7    20    21    2
     8    20    22   am
     9    22     1    1
    10     1     2   ar
    11     2     3   ar
    12     3     4   ar
    13     6     4    1
    14     6     7    1
    15     7     8    1
    16     8     9    1
    17     9    10    1
    18     9    11    1
    19    12    11    1
    20    12    13    1
    21    13    14    1
    22    14    15    1
    23    15    16    1
    24    15    17    2
    25     4     5   ar
    26    27    28   ar
    27    28    29   ar
    28    29    24   ar
    29     5     1   ar
    30    12     6    1
    31    17     6    1
    32    22    23    1
    33    16    18    1
    34    16    19    1
@<TRIPOS>MOLECULE
*****
 31 34 0 0 0
SMALL
GASTEIGER

@<TRIPOS>ATOM
      1 C         139.2419  141.4482  160.9958 C.ar    1  UNL1        0.1412
      2 C         138.4559  140.6329  160.0122 C.ar    1  UNL1        0.0710
      3 S         138.4137  141.3853  158.7152 S.2     1  UNL1       -0.0670
      4 C         139.1736  142.6658  158.8973 C.ar    1  UNL1        0.1122
      5 N         139.6854  142.7046  160.3068 N.ar    1  UNL1       -0.2259
      6 C         139.3846  143.7220  157.8533 C.3     1  UNL1        0.1549
      7 C         138.3060  142.6951  157.6741 C.3     1  UNL1        0.1705
      8 O         137.4384  142.7244  156.4509 O.3     1  UNL1       -0.3538
      9 C         137.6494  143.7805  155.4068 C.3     1  UNL1        0.1155
     10 C         136.7817  143.8098  154.1835 C.3     1  UNL1        0.0320
     11 C         138.7280  144.8074  155.5860 C.3     1  UNL1        0.0328
     12 C         139.5956  144.7781  156.8092 C.3     1  UNL1        0.0426
     13 C         140.6743  145.8050  156.9884 C.3     1  UNL1        0.0673
     14 S         141.5419  145.7757  158.2117 S.3     1  UNL1       -0.0807
     15 C         141.3309  144.7195  159.2557 C.2     1  UNL1        0.1483
     16 N         142.1986  144.6903  160.4790 N.pl3   1  UNL1       -0.3380
     17 N         140.2523  143.6927  159.0766 N.2     1  UNL1       -0.2464
     18 H         142.9065  145.3643  160.5966 H       1  UNL1        0.1442
     19 H         142.0601  143.9971  161.1643 H       1  UNL1        0.1442
     20 C         138.4470  141.1448  163.4505 C.2     1  UNL1        0.2506
     21 O         137.0696  141.5918  163.0598 O.2     1  UNL1       -0.2698
     22 N         139.5331  141.0730  162.4185 N.am    1  UNL1       -0.2654
     23 H         140.4372  140.7796  162.6750 H       1  UNL1        0.1566
     24 C         139.3210  140.0191  167.7190 C.ar    1  UNL1        0.1387
     25 C         139.9382  141.2514  167.1268 C.ar    1  UNL1        0.0370
     26 C         139.6469  141.6266  165.7041 C.ar    1  UNL1        0.0076
     27 C         138.7383  140.7696  164.8733 C.ar    1  UNL1        0.0539
     28 C         138.1210  139.5373  165.4654 C.ar    1  UNL1        0.0076
     29 C         138.4124  139.1621  166.8883 C.ar    1  UNL1        0.0370
     30 C         140.7732  140.2668  169.8589 C.3     1  UNL1        0.2525
     31 O         139.6123  139.6440  169.1417 O.3     1  UNL1       -0.4714
@<TRIPOS>BOND
     1    30    31    1
     2    31    24    1
     3    24    25   ar
     4    25    26   ar
     5    26    27   ar
     6    27    20    1
     7    20    21    2
     8    20    22   am
     9    22     1    1
    10     1     2   ar
    11     2     3   ar
    12     3     4   ar
    13     6     4    1
    14     6     7    1
    15     7     8    1
    16     8     9    1
    17     9    10    1
    18     9    11    1
    19    12    11    1
    20    12    13    1
    21    13    14    1
    22    14    15    1
    23    15    16    1
    24    15    17    2
    25     4     5   ar
    26    27    28   ar
    27    28    29   ar
    28    29    24   ar
    29     5     1   ar
    30    12     6    1
    31    17     6    1
    32    22    23    1
    33    16    18    1
    34    16    19    1
@<TRIPOS>MOLECULE
*****
 31 34 0 0 0
SMALL
GASTEIGER

@<TRIPOS>ATOM
      1 C         144.5900  142.6812  161.3063 C.ar    1  UNL1        0.1412
      2 C         145.0522  142.1453  162.6289 C.ar    1  UNL1        0.0710
      3 S         143.9898  142.4408  163.6457 S.2     1  UNL1       -0.0670
      4 C         142.8709  143.1594  162.9515 C.ar    1  UNL1        0.1122
      5 N         143.2418  143.3079  161.5058 N.ar    1  UNL1       -0.2259
      6 C         141.6036  143.6442  163.5909 C.3     1  UNL1        0.1549
      7 C         142.5037  142.7001  164.3315 C.3     1  UNL1        0.1705
      8 O         142.1365  142.2409  165.7114 O.3     1  UNL1       -0.3538
      9 C         140.8692  142.7257  166.3508 C.3     1  UNL1        0.1155
     10 C         140.5020  142.2664  167.7308 C.3     1  UNL1        0.0320
     11 C         139.9691  143.6698  165.6103 C.3     1  UNL1        0.0328
     12 C         140.3363  144.1291  164.2304 C.3     1  UNL1        0.0426
     13 C         139.4361  145.0733  163.4898 C.3     1  UNL1        0.0673
     14 S         139.8033  145.5325  162.1099 S.3     1  UNL1       -0.0807
     15 C         141.0706  145.0477  161.4704 C.2     1  UNL1        0.1483
     16 N         141.4378  145.5070  160.0905 N.pl3   1  UNL1       -0.3380
     17 N         141.9707  144.1035  162.2110 N.2     1  UNL1       -0.2464
     18 H         140.8470  146.1266  159.6044 H       1  UNL1        0.1442
     19 H         142.2696  145.1887  159.6708 H       1  UNL1        0.1442
     20 C         144.7303  141.9187  158.8267 C.2     1  UNL1        0.2506
     21 O         143.3635  141.3108  158.9362 O.2     1  UNL1       -0.2698
     22 N         145.3435  142.6039  160.0117 N.am    1  UNL1       -0.2654
     23 H         146.2407  143.0029  159.9398 H       1  UNL1        0.1566
     24 C         146.9914  141.6870  154.9428 C.ar    1  UNL1        0.1387
     25 C         147.4058  142.6733  155.9942 C.ar    1  UNL1        0.0370
     26 C         146.6521  142.7505  157.2888 C.ar    1  UNL1        0.0076
     27 C         145.4840  141.8414  157.5321 C.ar    1  UNL1        0.0539
     28 C         145.0695  140.8551  156.4806 C.ar    1  UNL1        0.0076
     29 C         145.8233  140.7779  155.1860 C.ar    1  UNL1        0.0370
     30 C         149.2353  141.7798  153.6367 C.3     1  UNL1        0.2525
     31 O         147.7450  141.6098  153.6483 O.3     1  UNL1       -0.4714
@<TRIPOS>BOND
     1    30    31    1
     2    31    24    1
     3    24    25   ar
     4    25    26   ar
     5    26    27   ar
     6    27    20    1
     7    20    21    2
     8    20    22   am
     9    22     1    1
    10     1     2   ar
    11     2     3   ar
    12     3     4   ar
    13     6     4    1
    14     6     7    1
    15     7     8    1
    16     8     9    1
    17     9    10    1
    18     9    11    1
    19    12    11    1
    20    12    13    1
    21    13    14    1
    22    14    15    1
    23    15    16    1
    24    15    17    2
    25     4     5   ar
    26    27    28   ar
    27    28    29   ar
    28    29    24   ar
    29     5     1   ar
    30    12     6    1
    31    17     6    1
    32    22    23    1
    33    16    18    1
    34    16    19    1
@<TRIPOS>MOLECULE
*****
 31 34 0 0 0
SMALL
GASTEIGER

@<TRIPOS>ATOM
      1 C         140.2200  145.3607  157.5184 C.ar    1  UNL1        0.1412
      2 C         140.5957  144.0566  156.8795 C.ar    1  UNL1        0.0710
      3 S         140.4251  142.9730  157.9026 S.2     1  UNL1       -0.0670
      4 C         139.9439  143.6075  159.1739 C.ar    1  UNL1        0.1122
      5 N         139.8172  145.0831  158.9364 N.ar    1  UNL1       -0.2259
      6 C         139.6425  142.8919  160.4573 C.3     1  UNL1        0.1549
      7 C         139.9421  142.1080  159.2140 C.3     1  UNL1        0.1705
      8 O         139.9403  140.6086  159.2541 O.3     1  UNL1       -0.3538
      9 C         139.6388  139.8930  160.5375 C.3     1  UNL1        0.1155
     10 C         139.6370  138.3935  160.5775 C.3     1  UNL1        0.0320
     11 C         139.3392  140.6768  161.7807 C.3     1  UNL1        0.0328
     12 C         139.3410  142.1763  161.7406 C.3     1  UNL1        0.0426
     13 C         139.0414  142.9602  162.9840 C.3     1  UNL1        0.0673
     14 S         139.0432  144.4596  162.9439 S.3     1  UNL1       -0.0807
     15 C         139.3446  145.1752  161.6605 C.2     1  UNL1        0.1483
     16 N         139.3465  146.6747  161.6204 N.pl3   1  UNL1       -0.3380
     17 N         139.6443  144.3914  160.4172 N.2     1  UNL1       -0.2464
     18 H         139.1498  147.1892  162.4365 H       1  UNL1        0.1442
     19 H         139.5443  147.1444  160.7781 H       1  UNL1        0.1442
     20 C         139.2167  147.0480  155.8166 C.2     1  UNL1        0.2506
     21 O         138.1673  146.0446  155.4403 O.2     1  UNL1       -0.2698
     22 N         140.2431  146.7061  156.8557 N.am    1  UNL1       -0.2654
     23 H         140.9319  147.3647  157.1027 H       1  UNL1        0.1566
     24 C         139.2861  151.0845  153.8284 C.ar    1  UNL1        0.1387
     25 C         138.6331  150.9197  155.1688 C.ar    1  UNL1        0.0370
     26 C         138.6100  149.5743  155.8315 C.ar    1  UNL1        0.0076
     27 C         139.2399  148.3935  155.1539 C.ar    1  UNL1        0.0539
     28 C         139.8929  148.5582  153.8135 C.ar    1  UNL1        0.0076
     29 C         139.9160  149.9038  153.1508 C.ar    1  UNL1        0.0370
     30 C         139.9787  153.5884  153.8437 C.3     1  UNL1        0.2525
     31 O         139.3092  152.4299  153.1658 O.3     1  UNL1       -0.4714
@<TRIPOS>BOND
     1    30    31    1
     2    31    24    1
     3    24    25   ar
     4    25    26   ar
     5    26    27   ar
     6    27    20    1
     7    20    21    2
     8    20    22   am
     9    22     1    1
    10     1     2   ar
    11     2     3   ar
    12     3     4   ar
    13     6     4    1
    14     6     7    1
    15     7     8    1
    16     8     9    1
    17     9    10    1
    18     9    11    1
    19    12    11    1
    20    12    13    1
    21    13    14    1
    22    14    15    1
    23    15    16    1
    24    15    17    2
    25     4     5   ar
    26    27    28   ar
    27    28    29   ar
    28    29    24   ar
    29     5     1   ar
    30    12     6    1
    31    17     6    1
    32    22    23    1
    33    16    18    1
    34    16    19    1
@<TRIPOS>MOLECULE
*****
 31 34 0 0 0
SMALL
GASTEIGER

@<TRIPOS>ATOM
      1 C         139.2663  143.7804  162.3283 C.ar    1  UNL1        0.1412
      2 C         138.9368  144.7908  163.3868 C.ar    1  UNL1        0.0710
      3 S         138.9541  144.0935  164.7148 S.2     1  UNL1       -0.0670
      4 C         139.2943  142.6520  164.4769 C.ar    1  UNL1        0.1122
      5 N         139.4872  142.4585  163.0020 N.ar    1  UNL1       -0.2259
      6 C         139.4196  141.5904  165.5292 C.3     1  UNL1        0.1549
      7 C         139.8056  143.0057  165.8420 C.3     1  UNL1        0.1705
      8 O         140.3168  143.3594  167.2070 O.3     1  UNL1       -0.3538
      9 C         140.4421  142.2978  168.2593 C.3     1  UNL1        0.1155
     10 C         140.9534  142.6516  169.6244 C.3     1  UNL1        0.0320
     11 C         140.0561  140.8825  167.9466 C.3     1  UNL1        0.0328
     12 C         139.5448  140.5288  166.5815 C.3     1  UNL1        0.0426
     13 C         139.1588  139.1134  166.2687 C.3     1  UNL1        0.0673
     14 S         138.6475  138.7597  164.9037 S.3     1  UNL1       -0.0807
     15 C         138.5222  139.8213  163.8513 C.2     1  UNL1        0.1483
     16 N         138.0109  139.4675  162.4862 N.pl3   1  UNL1       -0.3380
     17 N         138.9082  141.2366  164.1641 N.2     1  UNL1       -0.2464
     18 H         137.7576  138.5386  162.2810 H       1  UNL1        0.1442
     19 H         137.9287  140.1642  161.7955 H       1  UNL1        0.1442
     20 C         140.6530  144.5097  160.2559 C.2     1  UNL1        0.2506
     21 O         141.8552  144.7090  161.1304 O.2     1  UNL1       -0.2698
     22 N         139.3585  144.0453  160.8548 N.am    1  UNL1       -0.2654
     23 H         138.5695  143.9145  160.2808 H       1  UNL1        0.1566
     24 C         140.9296  145.3045  155.8352 C.ar    1  UNL1        0.1387
     25 C         139.8468  144.4155  156.3711 C.ar    1  UNL1        0.0370
     26 C         139.7545  144.1505  157.8446 C.ar    1  UNL1        0.0076
     27 C         140.7452  144.7746  158.7823 C.ar    1  UNL1        0.0539
     28 C         141.8281  145.6636  158.2464 C.ar    1  UNL1        0.0076
     29 C         141.9202  145.9285  156.7728 C.ar    1  UNL1        0.0370
     30 C         140.6227  146.9075  153.8138 C.3     1  UNL1        0.2525
     31 O         141.0218  145.5694  154.3617 O.3     1  UNL1       -0.4714
@<TRIPOS>BOND
     1    30    31    1
     2    31    24    1
     3    24    25   ar
     4    25    26   ar
     5    26    27   ar
     6    27    20    1
     7    20    21    2
     8    20    22   am
     9    22     1    1
    10     1     2   ar
    11     2     3   ar
    12     3     4   ar
    13     6     4    1
    14     6     7    1
    15     7     8    1
    16     8     9    1
    17     9    10    1
    18     9    11    1
    19    12    11    1
    20    12    13    1
    21    13    14    1
    22    14    15    1
    23    15    16    1
    24    15    17    2
    25     4     5   ar
    26    27    28   ar
    27    28    29   ar
    28    29    24   ar
    29     5     1   ar
    30    12     6    1
    31    17     6    1
    32    22    23    1
    33    16    18    1
    34    16    19    1
@<TRIPOS>MOLECULE
*****
 31 34 0 0 0
SMALL
GASTEIGER

@<TRIPOS>ATOM
      1 C         140.2762  144.7028  158.5065 C.ar    1  UNL1        0.1412
      2 C         141.0952  143.4567  158.3442 C.ar    1  UNL1        0.0710
      3 S         140.7042  142.4999  159.4313 S.2     1  UNL1       -0.0670
      4 C         139.6433  143.1549  160.2656 C.ar    1  UNL1        0.1122
      5 N         139.3789  144.5162  159.6940 N.ar    1  UNL1       -0.2259
      6 C         138.9660  142.5539  161.4614 C.3     1  UNL1        0.1549
      7 C         139.5554  143.9306  161.5464 C.3     1  UNL1        0.1705
      8 O         139.4674  144.7062  162.8272 O.3     1  UNL1       -0.3538
      9 C         138.7900  144.1053  164.0230 C.3     1  UNL1        0.1155
     10 C         138.7021  144.8810  165.3038 C.3     1  UNL1        0.0320
     11 C         138.2006  142.7286  163.9380 C.3     1  UNL1        0.0328
     12 C         138.2886  141.9529  162.6572 C.3     1  UNL1        0.0426
     13 C         137.6991  140.5761  162.5721 C.3     1  UNL1        0.0673
     14 S         137.7871  139.8004  161.2913 S.3     1  UNL1       -0.0807
     15 C         138.4645  140.4014  160.0955 C.2     1  UNL1        0.1483
     16 N         138.5524  139.6256  158.8146 N.pl3   1  UNL1       -0.3380
     17 N         139.0539  141.7781  160.1805 N.2     1  UNL1       -0.2464
     18 H         138.1656  138.7220  158.7589 H       1  UNL1        0.1442
     19 H         138.9970  140.0201  158.0298 H       1  UNL1        0.1442
     20 C         139.5810  145.9620  156.3430 C.2     1  UNL1        0.2506
     21 O         138.7526  144.7841  155.9236 O.2     1  UNL1       -0.2698
     22 N         140.3428  145.9214  157.6345 N.am    1  UNL1       -0.2654
     23 H         140.8866  146.6945  157.9098 H       1  UNL1        0.1566
     24 C         139.7811  149.6181  153.7270 C.ar    1  UNL1        0.1387
     25 C         140.4870  148.3607  153.3139 C.ar    1  UNL1        0.0370
     26 C         140.4203  147.1420  154.1858 C.ar    1  UNL1        0.0076
     27 C         139.6477  147.1807  155.4710 C.ar    1  UNL1        0.0539
     28 C         138.9417  148.4381  155.8842 C.ar    1  UNL1        0.0076
     29 C         139.0085  149.6568  155.0121 C.ar    1  UNL1        0.0370
     30 C         139.0423  152.0532  153.2032 C.3     1  UNL1        0.2525
     31 O         139.8478  150.8367  152.8550 O.3     1  UNL1       -0.4714
@<TRIPOS>BOND
     1    30    31    1
     2    31    24    1
     3    24    25   ar
     4    25    26   ar
     5    26    27   ar
     6    27    20    1
     7    20    21    2
     8    20    22   am
     9    22     1    1
    10     1     2   ar
    11     2     3   ar
    12     3     4   ar
    13     6     4    1
    14     6     7    1
    15     7     8    1
    16     8     9    1
    17     9    10    1
    18     9    11    1
    19    12    11    1
    20    12    13    1
    21    13    14    1
    22    14    15    1
    23    15    16    1
    24    15    17    2
    25     4     5   ar
    26    27    28   ar
    27    28    29   ar
    28    29    24   ar
    29     5     1   ar
    30    12     6    1
    31    17     6    1
    32    22    23    1
    33    16    18    1
    34    16    19    1
@<TRIPOS>MOLECULE
*****
 31 34 0 0 0
SMALL
GASTEIGER

@<TRIPOS>ATOM
      1 C         143.7796  142.6561  161.4165 C.ar    1  UNL1        0.1412
      2 C         143.9546  143.6372  162.5376 C.ar    1  UNL1        0.0710
      3 S         142.7054  143.6200  163.3679 S.2     1  UNL1       -0.0670
      4 C         141.7584  142.6282  162.7598 C.ar    1  UNL1        0.1122
      5 N         142.4223  142.0325  161.5539 N.ar    1  UNL1       -0.2259
      6 C         140.3881  142.2912  163.2685 C.3     1  UNL1        0.1549
      7 C         141.4605  141.2427  163.2515 C.3     1  UNL1        0.1705
      8 O         141.1627  139.8572  163.7431 O.3     1  UNL1       -0.3538
      9 C         139.7924  139.5203  164.2518 C.3     1  UNL1        0.1155
     10 C         139.4946  138.1348  164.7434 C.3     1  UNL1        0.0320
     11 C         138.7199  140.5689  164.2688 C.3     1  UNL1        0.0328
     12 C         139.0178  141.9543  163.7772 C.3     1  UNL1        0.0426
     13 C         137.9453  143.0029  163.7942 C.3     1  UNL1        0.0673
     14 S         138.2431  144.3884  163.3026 S.3     1  UNL1       -0.0807
     15 C         139.6134  144.7253  162.7939 C.2     1  UNL1        0.1483
     16 N         139.9112  146.1109  162.3023 N.pl3   1  UNL1       -0.3380
     17 N         140.6859  143.6768  162.7769 N.2     1  UNL1       -0.2464
     18 H         139.2073  146.7991  162.3135 H       1  UNL1        0.1442
     19 H         140.8106  146.3320  161.9684 H       1  UNL1        0.1442
     20 C         144.5024  142.7290  158.9221 C.2     1  UNL1        0.2506
     21 O         143.2136  143.4100  158.5685 O.2     1  UNL1       -0.2698
     22 N         144.7854  142.3520  160.3461 N.am    1  UNL1       -0.2654
     23 H         145.6313  141.9050  160.5782 H       1  UNL1        0.1566
     24 C         147.5199  141.8166  155.7108 C.ar    1  UNL1        0.1387
     25 C         146.1677  141.1683  155.6754 C.ar    1  UNL1        0.0370
     26 C         145.1619  141.4724  156.7458 C.ar    1  UNL1        0.0076
     27 C         145.5082  142.4249  157.8517 C.ar    1  UNL1        0.0539
     28 C         146.8604  143.0732  157.8871 C.ar    1  UNL1        0.0076
     29 C         147.8663  142.7690  156.8167 C.ar    1  UNL1        0.0370
     30 C         149.9849  141.4420  154.9805 C.3     1  UNL1        0.2525
     31 O         148.5257  141.5124  154.6404 O.3     1  UNL1       -0.4714
@<TRIPOS>BOND
     1    30    31    1
     2    31    24    1
     3    24    25   ar
     4    25    26   ar
     5    26    27   ar
     6    27    20    1
     7    20    21    2
     8    20    22   am
     9    22     1    1
    10     1     2   ar
    11     2     3   ar
    12     3     4   ar
    13     6     4    1
    14     6     7    1
    15     7     8    1
    16     8     9    1
    17     9    10    1
    18     9    11    1
    19    12    11    1
    20    12    13    1
    21    13    14    1
    22    14    15    1
    23    15    16    1
    24    15    17    2
    25     4     5   ar
    26    27    28   ar
    27    28    29   ar
    28    29    24   ar
    29     5     1   ar
    30    12     6    1
    31    17     6    1
    32    22    23    1
    33    16    18    1
    34    16    19    1
