@<TRIPOS>MOLECULE
*****
 37 41 0 0 0
SMALL
GASTEIGER

@<TRIPOS>ATOM
      1 C         140.3962  142.3488  167.7506 C.3     1  UNL1        0.0832
      2 C         140.3973  143.2217  168.9704 C.3     1  UNL1        0.0372
      3 C         140.0425  142.6423  170.3076 C.3     1  UNL1        0.0703
      4 N         139.6865  141.1898  170.4251 N.3     1  UNL1       -0.2970
      5 C         139.6854  140.3169  169.2053 C.3     1  UNL1        0.0794
      6 C         140.0402  140.8964  167.8680 C.3     1  UNL1        0.1101
      7 H         138.7461  141.1480  170.8180 H       1  UNL1        0.1233
      8 O         143.2226  142.2041  166.7555 O.2     1  UNL1       -0.2684
      9 C         142.1643  142.8559  165.9157 C.2     1  UNL1        0.2669
     10 N         140.7511  142.9282  166.4133 N.am    1  UNL1       -0.3006
     11 H         140.0564  143.3560  165.8621 H       1  UNL1        0.1497
     12 C         142.5192  143.4353  164.5784 C.ar    1  UNL1        0.1761
     13 C         141.6667  143.3930  163.3449 C.ar    1  UNL1        0.0673
     14 C         142.4095  144.0903  162.2440 C.ar    1  UNL1        0.1792
     15 O         143.7211  144.5636  162.7972 O.2     1  UNL1       -0.3532
     16 N         143.7888  144.1588  164.2399 N.ar    1  UNL1       -0.0723
     17 C         141.9258  144.2809  160.8370 C.ar    1  UNL1        0.0648
     18 C         142.5340  143.4850  159.7205 C.ar    1  UNL1        0.0077
     19 C         142.0503  143.6756  158.3135 C.ar    1  UNL1        0.0299
     20 C         140.9583  144.6621  158.0230 C.ar    1  UNL1        0.1424
     21 F         140.4745  144.8527  156.6160 F       1  UNL1       -0.2041
     22 C         140.3501  145.4579  159.1395 C.ar    1  UNL1        0.0593
     23 C         140.8338  145.2673  160.5465 C.ar    1  UNL1        0.1453
     24 F         140.2255  146.0632  161.6630 F       1  UNL1       -0.2040
     25 C         140.0391  140.0234  166.6482 C.2     1  UNL1        0.2252
     26 O         141.3052  139.3522  166.2051 O.2     1  UNL1       -0.2750
     27 N         138.7719  139.8218  165.8714 N.am    1  UNL1       -0.3010
     28 H         137.9409  140.2624  166.1622 H       1  UNL1        0.1497
     29 C         138.7707  138.9489  164.6516 C.3     1  UNL1        0.1089
     30 C         138.7730  137.7114  163.8038 C.3     1  UNL1        0.0274
     31 C         138.7803  137.5960  165.2994 C.3     1  UNL1        0.0274
     32 C         138.7608  139.9986  163.5801 C.ar    1  UNL1        0.1549
     33 N         137.7600  141.1147  163.6328 N.ar    1  UNL1       -0.2276
     34 C         137.7501  142.1644  162.5613 C.ar    1  UNL1        0.1019
     35 C         138.7409  142.0980  161.4372 C.ar    1  UNL1        0.0413
     36 C         139.7417  140.9819  161.3845 C.ar    1  UNL1        0.1019
     37 N         139.7517  139.9322  162.4559 N.ar    1  UNL1       -0.2276
@<TRIPOS>BOND
     1     8     9    2
     2     9    10   am
     3     1    10    1
     4     1     2    1
     5     2     3    1
     6     3     4    1
     7     4     5    1
     8     5     6    1
     9     6    25    1
    10    25    26    2
    11    25    27   am
    12    27    29    1
    13    29    32    1
    14    32    33   ar
    15    33    34   ar
    16    34    35   ar
    17    35    36   ar
    18    36    37   ar
    19    29    30    1
    20    30    31    1
    21     9    12    1
    22    12    13   ar
    23    13    14   ar
    24    14    17    1
    25    17    18   ar
    26    18    19   ar
    27    19    20   ar
    28    20    21    1
    29    20    22   ar
    30    22    23   ar
    31    23    24    1
    32    14    15   ar
    33    15    16   ar
    34     6     1    1
    35    31    29    1
    36    16    12   ar
    37    37    32   ar
    38    23    17   ar
    39    10    11    1
    40     4     7    1
    41    27    28    1
@<TRIPOS>MOLECULE
*****
 37 41 0 0 0
SMALL
GASTEIGER

@<TRIPOS>ATOM
      1 C         141.4690  144.1916  159.5579 C.3     1  UNL1        0.0832
      2 C         141.3990  145.5182  158.8613 C.3     1  UNL1        0.0372
      3 C         142.0783  145.7068  157.5373 C.3     1  UNL1        0.0703
      4 N         142.8275  144.5688  156.9099 N.3     1  UNL1       -0.2970
      5 C         142.8975  143.2422  157.6064 C.3     1  UNL1        0.0794
      6 C         142.2182  143.0536  158.9304 C.3     1  UNL1        0.1101
      7 H         143.7887  144.8847  156.7808 H       1  UNL1        0.1233
      8 O         142.9911  144.6460  162.1028 O.2     1  UNL1       -0.2684
      9 C         141.5508  144.2301  162.1544 C.2     1  UNL1        0.2669
     10 N         140.7897  144.0029  160.8819 N.am    1  UNL1       -0.3006
     11 H         139.8444  143.7300  160.9158 H       1  UNL1        0.1497
     12 C         140.8716  144.0415  163.4784 C.ar    1  UNL1        0.1761
     13 C         141.1616  142.9551  164.4713 C.ar    1  UNL1        0.0673
     14 C         140.2524  143.1483  165.6486 C.ar    1  UNL1        0.1792
     15 O         139.4005  144.3541  165.3833 O.2     1  UNL1       -0.3532
     16 N         139.7832  144.9061  164.0421 N.ar    1  UNL1       -0.0723
     17 C         140.2037  142.2870  166.8756 C.ar    1  UNL1        0.0648
     18 C         140.6560  142.8364  168.1961 C.ar    1  UNL1        0.0077
     19 C         140.6072  141.9751  169.4232 C.ar    1  UNL1        0.0299
     20 C         140.1062  140.5644  169.3298 C.ar    1  UNL1        0.1424
     21 F         140.0575  139.7030  170.5568 F       1  UNL1       -0.2041
     22 C         139.6540  140.0150  168.0094 C.ar    1  UNL1        0.0593
     23 C         139.7027  140.8763  166.7823 C.ar    1  UNL1        0.1453
     24 F         139.2504  140.3268  165.4619 F       1  UNL1       -0.2040
     25 C         142.2882  141.7270  159.6271 C.2     1  UNL1        0.2252
     26 O         141.0825  141.1894  160.3393 O.2     1  UNL1       -0.2750
     27 N         143.5638  140.9380  159.6113 N.am    1  UNL1       -0.3010
     28 H         144.3551  141.2909  159.1438 H       1  UNL1        0.1497
     29 C         143.6338  139.6114  160.3079 C.3     1  UNL1        0.1089
     30 C         143.4941  138.1378  160.5509 C.3     1  UNL1        0.0274
     31 C         143.0544  138.7274  159.2435 C.3     1  UNL1        0.0274
     32 C         144.2375  140.0346  161.6142 C.ar    1  UNL1        0.1549
     33 N         144.1331  139.1399  162.8136 N.ar    1  UNL1       -0.2276
     34 C         144.7368  139.5631  164.1199 C.ar    1  UNL1        0.1019
     35 C         145.4450  140.8811  164.2268 C.ar    1  UNL1        0.0413
     36 C         145.5495  141.7758  163.0274 C.ar    1  UNL1        0.1019
     37 N         144.9458  141.3526  161.7211 N.ar    1  UNL1       -0.2276
@<TRIPOS>BOND
     1     8     9    2
     2     9    10   am
     3     1    10    1
     4     1     2    1
     5     2     3    1
     6     3     4    1
     7     4     5    1
     8     5     6    1
     9     6    25    1
    10    25    26    2
    11    25    27   am
    12    27    29    1
    13    29    32    1
    14    32    33   ar
    15    33    34   ar
    16    34    35   ar
    17    35    36   ar
    18    36    37   ar
    19    29    30    1
    20    30    31    1
    21     9    12    1
    22    12    13   ar
    23    13    14   ar
    24    14    17    1
    25    17    18   ar
    26    18    19   ar
    27    19    20   ar
    28    20    21    1
    29    20    22   ar
    30    22    23   ar
    31    23    24    1
    32    14    15   ar
    33    15    16   ar
    34     6     1    1
    35    31    29    1
    36    16    12   ar
    37    37    32   ar
    38    23    17   ar
    39    10    11    1
    40     4     7    1
    41    27    28    1
@<TRIPOS>MOLECULE
*****
 37 41 0 0 0
SMALL
GASTEIGER

@<TRIPOS>ATOM
      1 C         140.4143  142.3602  167.5788 C.3     1  UNL1        0.0832
      2 C         140.6290  143.1358  168.8446 C.3     1  UNL1        0.0372
      3 C         140.2902  142.5185  170.1690 C.3     1  UNL1        0.0703
      4 N         139.7367  141.1255  170.2275 N.3     1  UNL1       -0.2970
      5 C         139.5220  140.3500  168.9617 C.3     1  UNL1        0.0794
      6 C         139.8608  140.9673  167.6373 C.3     1  UNL1        0.1101
      7 H         138.8307  141.1880  170.6918 H       1  UNL1        0.1233
      8 O         143.2337  142.2673  166.5578 O.2     1  UNL1       -0.2684
      9 C         142.1628  142.9311  165.7438 C.2     1  UNL1        0.2669
     10 N         140.7531  142.9776  166.2543 N.am    1  UNL1       -0.3006
     11 H         140.0502  143.4132  165.7200 H       1  UNL1        0.1497
     12 C         142.5016  143.5484  164.4194 C.ar    1  UNL1        0.1761
     13 C         141.6944  143.4327  163.1604 C.ar    1  UNL1        0.0673
     14 C         142.4010  144.2026  162.0843 C.ar    1  UNL1        0.1792
     15 O         143.6449  144.7942  162.6783 O.2     1  UNL1       -0.3532
     16 N         143.7070  144.3899  164.1215 N.ar    1  UNL1       -0.0723
     17 C         141.9440  144.3543  160.6637 C.ar    1  UNL1        0.0648
     18 C         142.5882  143.5442  159.5780 C.ar    1  UNL1        0.0077
     19 C         142.1312  143.6959  158.1574 C.ar    1  UNL1        0.0299
     20 C         141.0300  144.6577  157.8225 C.ar    1  UNL1        0.1424
     21 F         140.5730  144.8094  156.4019 F       1  UNL1       -0.2041
     22 C         140.3858  145.4677  158.9081 C.ar    1  UNL1        0.0593
     23 C         140.8428  145.3160  160.3287 C.ar    1  UNL1        0.1453
     24 F         140.1986  146.1262  161.4144 F       1  UNL1       -0.2040
     25 C         139.6461  140.1917  166.3714 C.2     1  UNL1        0.2252
     26 O         138.6179  140.6464  165.3785 O.2     1  UNL1       -0.2750
     27 N         140.4598  138.9615  166.0985 N.am    1  UNL1       -0.3010
     28 H         141.1347  138.6631  166.7501 H       1  UNL1        0.1497
     29 C         140.2451  138.1859  164.8326 C.3     1  UNL1        0.1089
     30 C         139.5840  137.3057  163.8138 C.3     1  UNL1        0.0274
     31 C         138.8847  137.6153  165.1043 C.3     1  UNL1        0.0274
     32 C         141.5309  138.4871  164.1214 C.ar    1  UNL1        0.1549
     33 N         141.8379  137.8214  162.8127 N.ar    1  UNL1       -0.2276
     34 C         143.1238  138.1226  162.1014 C.ar    1  UNL1        0.1019
     35 C         144.1026  139.0896  162.6988 C.ar    1  UNL1        0.0413
     36 C         143.7956  139.7553  164.0074 C.ar    1  UNL1        0.1019
     37 N         142.5098  139.4541  164.7188 N.ar    1  UNL1       -0.2276
@<TRIPOS>BOND
     1     8     9    2
     2     9    10   am
     3     1    10    1
     4     1     2    1
     5     2     3    1
     6     3     4    1
     7     4     5    1
     8     5     6    1
     9     6    25    1
    10    25    26    2
    11    25    27   am
    12    27    29    1
    13    29    32    1
    14    32    33   ar
    15    33    34   ar
    16    34    35   ar
    17    35    36   ar
    18    36    37   ar
    19    29    30    1
    20    30    31    1
    21     9    12    1
    22    12    13   ar
    23    13    14   ar
    24    14    17    1
    25    17    18   ar
    26    18    19   ar
    27    19    20   ar
    28    20    21    1
    29    20    22   ar
    30    22    23   ar
    31    23    24    1
    32    14    15   ar
    33    15    16   ar
    34     6     1    1
    35    31    29    1
    36    16    12   ar
    37    37    32   ar
    38    23    17   ar
    39    10    11    1
    40     4     7    1
    41    27    28    1
@<TRIPOS>MOLECULE
*****
 37 41 0 0 0
SMALL
GASTEIGER

@<TRIPOS>ATOM
      1 C         139.5124  141.9432  160.3529 C.3     1  UNL1        0.0832
      2 C         138.4153  141.4657  159.4482 C.3     1  UNL1        0.0372
      3 C         138.1548  142.1692  158.1493 C.3     1  UNL1        0.0703
      4 N         138.9913  143.3502  157.7551 N.3     1  UNL1       -0.2970
      5 C         140.0883  143.8278  158.6598 C.3     1  UNL1        0.0794
      6 C         140.3488  143.1242  159.9586 C.3     1  UNL1        0.1101
      7 H         138.3518  144.1347  157.6282 H       1  UNL1        0.1233
      8 O         137.3338  141.7248  162.4038 O.2     1  UNL1       -0.2684
      9 C         138.6837  141.1305  162.6773 C.2     1  UNL1        0.2669
     10 N         139.7730  141.2397  161.6518 N.am    1  UNL1       -0.3006
     11 H         140.6589  140.8496  161.8313 H       1  UNL1        0.1497
     12 C         138.9442  140.4270  163.9762 C.ar    1  UNL1        0.1761
     13 C         139.6525  141.0051  165.1654 C.ar    1  UNL1        0.0673
     14 C         139.6882  139.9573  166.2382 C.ar    1  UNL1        0.1792
     15 O         139.0021  138.7316  165.7119 O.2     1  UNL1       -0.3532
     16 N         138.5423  139.0219  164.3140 N.ar    1  UNL1       -0.0723
     17 C         140.3023  140.1086  167.5983 C.ar    1  UNL1        0.0648
     18 C         139.4241  140.2399  168.8073 C.ar    1  UNL1        0.0077
     19 C         140.0382  140.3912  170.1675 C.ar    1  UNL1        0.0299
     20 C         141.5304  140.4112  170.3186 C.ar    1  UNL1        0.1424
     21 F         142.1445  140.5625  171.6788 F       1  UNL1       -0.2041
     22 C         142.4085  140.2799  169.1097 C.ar    1  UNL1        0.0593
     23 C         141.7944  140.1286  167.7496 C.ar    1  UNL1        0.1453
     24 F         142.6726  139.9973  166.5406 F       1  UNL1       -0.2040
     25 C         141.4459  143.6018  160.8634 C.2     1  UNL1        0.2252
     26 O         142.7147  144.1488  160.2796 O.2     1  UNL1       -0.2750
     27 N         141.2741  143.5322  162.3519 N.am    1  UNL1       -0.3010
     28 H         140.4413  143.1732  162.7350 H       1  UNL1        0.1497
     29 C         142.3711  144.0097  163.2566 C.3     1  UNL1        0.1089
     30 C         143.1751  144.9174  164.1397 C.3     1  UNL1        0.0274
     31 C         141.9082  145.4142  163.5084 C.3     1  UNL1        0.0274
     32 C         143.2149  142.7712  163.3191 C.ar    1  UNL1        0.1549
     33 N         144.7040  142.8844  163.4592 N.ar    1  UNL1       -0.2276
     34 C         145.5479  141.6458  163.5217 C.ar    1  UNL1        0.1019
     35 C         144.9026  140.2940  163.4440 C.ar    1  UNL1        0.0413
     36 C         143.4135  140.1808  163.3039 C.ar    1  UNL1        0.1019
     37 N         142.5696  141.4193  163.2414 N.ar    1  UNL1       -0.2276
@<TRIPOS>BOND
     1     8     9    2
     2     9    10   am
     3     1    10    1
     4     1     2    1
     5     2     3    1
     6     3     4    1
     7     4     5    1
     8     5     6    1
     9     6    25    1
    10    25    26    2
    11    25    27   am
    12    27    29    1
    13    29    32    1
    14    32    33   ar
    15    33    34   ar
    16    34    35   ar
    17    35    36   ar
    18    36    37   ar
    19    29    30    1
    20    30    31    1
    21     9    12    1
    22    12    13   ar
    23    13    14   ar
    24    14    17    1
    25    17    18   ar
    26    18    19   ar
    27    19    20   ar
    28    20    21    1
    29    20    22   ar
    30    22    23   ar
    31    23    24    1
    32    14    15   ar
    33    15    16   ar
    34     6     1    1
    35    31    29    1
    36    16    12   ar
    37    37    32   ar
    38    23    17   ar
    39    10    11    1
    40     4     7    1
    41    27    28    1
@<TRIPOS>MOLECULE
*****
 37 41 0 0 0
SMALL
GASTEIGER

@<TRIPOS>ATOM
      1 C         141.0290  143.7140  160.9834 C.3     1  UNL1        0.0832
      2 C         140.7736  145.1369  160.5834 C.3     1  UNL1        0.0372
      3 C         140.5994  145.4893  159.1359 C.3     1  UNL1        0.0703
      4 N         140.6805  144.4188  158.0883 N.3     1  UNL1       -0.2970
      5 C         140.9359  142.9959  158.4883 C.3     1  UNL1        0.0794
      6 C         141.1102  142.6435  159.9358 C.3     1  UNL1        0.1101
      7 H         141.4323  144.6854  157.4525 H       1  UNL1        0.1233
      8 O         143.7657  143.7305  162.2123 O.2     1  UNL1       -0.2684
      9 C         142.5716  143.3698  163.0454 C.2     1  UNL1        0.2669
     10 N         141.2033  143.3615  162.4310 N.am    1  UNL1       -0.3006
     11 H         140.4195  143.1248  162.9778 H       1  UNL1        0.1497
     12 C         142.7459  143.0173  164.4929 C.ar    1  UNL1        0.1761
     13 C         141.7448  142.3054  165.3538 C.ar    1  UNL1        0.0673
     14 C         142.3321  142.1630  166.7267 C.ar    1  UNL1        0.1792
     15 O         143.6962  142.7869  166.7143 O.2     1  UNL1       -0.3532
     16 N         143.9519  143.3149  165.3338 N.ar    1  UNL1       -0.0723
     17 C         141.6713  141.5112  167.9050 C.ar    1  UNL1        0.0648
     18 C         140.5538  142.2109  168.6202 C.ar    1  UNL1        0.0077
     19 C         139.8930  141.5591  169.7985 C.ar    1  UNL1        0.0299
     20 C         140.3499  140.2076  170.2617 C.ar    1  UNL1        0.1424
     21 F         139.6891  139.5557  171.4401 F       1  UNL1       -0.2041
     22 C         141.4674  139.5079  169.5466 C.ar    1  UNL1        0.0593
     23 C         142.1281  140.1597  168.3683 C.ar    1  UNL1        0.1453
     24 F         143.2457  139.4599  167.6531 F       1  UNL1       -0.2040
     25 C         141.3656  141.2205  160.3359 C.2     1  UNL1        0.2252
     26 O         140.3226  140.4565  161.0964 O.2     1  UNL1       -0.2750
     27 N         142.6640  140.5616  159.9753 N.am    1  UNL1       -0.3010
     28 H         143.3485  141.0631  159.4761 H       1  UNL1        0.1497
     29 C         142.9195  139.1387  160.3753 C.3     1  UNL1        0.1089
     30 C         142.9917  137.6427  160.2931 C.3     1  UNL1        0.0274
     31 C         142.4807  138.4341  159.1258 C.3     1  UNL1        0.0274
     32 C         143.4469  139.3490  161.7636 C.ar    1  UNL1        0.1549
     33 N         144.5680  140.3167  162.0014 N.ar    1  UNL1       -0.2276
     34 C         145.0955  140.5272  163.3898 C.ar    1  UNL1        0.1019
     35 C         144.5018  139.7698  164.5404 C.ar    1  UNL1        0.0413
     36 C         143.3806  138.8021  164.3026 C.ar    1  UNL1        0.1019
     37 N         142.8531  138.5917  162.9143 N.ar    1  UNL1       -0.2276
@<TRIPOS>BOND
     1     8     9    2
     2     9    10   am
     3     1    10    1
     4     1     2    1
     5     2     3    1
     6     3     4    1
     7     4     5    1
     8     5     6    1
     9     6    25    1
    10    25    26    2
    11    25    27   am
    12    27    29    1
    13    29    32    1
    14    32    33   ar
    15    33    34   ar
    16    34    35   ar
    17    35    36   ar
    18    36    37   ar
    19    29    30    1
    20    30    31    1
    21     9    12    1
    22    12    13   ar
    23    13    14   ar
    24    14    17    1
    25    17    18   ar
    26    18    19   ar
    27    19    20   ar
    28    20    21    1
    29    20    22   ar
    30    22    23   ar
    31    23    24    1
    32    14    15   ar
    33    15    16   ar
    34     6     1    1
    35    31    29    1
    36    16    12   ar
    37    37    32   ar
    38    23    17   ar
    39    10    11    1
    40     4     7    1
    41    27    28    1
@<TRIPOS>MOLECULE
*****
 37 41 0 0 0
SMALL
GASTEIGER

@<TRIPOS>ATOM
      1 C         141.5924  143.9563  160.4336 C.3     1  UNL1        0.0832
      2 C         141.2175  145.1360  159.5864 C.3     1  UNL1        0.0372
      3 C         141.9221  145.3786  158.2847 C.3     1  UNL1        0.0703
      4 N         143.0015  144.4416  157.8300 N.3     1  UNL1       -0.2970
      5 C         143.3765  143.2619  158.6772 C.3     1  UNL1        0.0794
      6 C         142.6719  143.0192  159.9790 C.3     1  UNL1        0.1101
      7 H         143.8467  145.0005  157.7131 H       1  UNL1        0.1233
      8 O         142.7355  145.0471  162.9838 O.2     1  UNL1       -0.2684
      9 C         141.4594  144.2590  163.0106 C.2     1  UNL1        0.2669
     10 N         140.8879  143.7136  161.7355 N.am    1  UNL1       -0.3006
     11 H         140.0504  143.1963  161.7530 H       1  UNL1        0.1497
     12 C         140.7549  144.0163  164.3124 C.ar    1  UNL1        0.1761
     13 C         141.1221  142.9812  165.3341 C.ar    1  UNL1        0.0673
     14 C         140.1536  143.0913  166.4742 C.ar    1  UNL1        0.1792
     15 O         139.1879  144.1945  166.1572 O.2     1  UNL1       -0.3532
     16 N         139.5595  144.7662  164.8211 N.ar    1  UNL1       -0.0723
     17 C         140.1513  142.2466  167.7137 C.ar    1  UNL1        0.0648
     18 C         140.0959  140.7517  167.6025 C.ar    1  UNL1        0.0077
     19 C         140.0935  139.9070  168.8420 C.ar    1  UNL1        0.0299
     20 C         140.1466  140.5572  170.1928 C.ar    1  UNL1        0.1424
     21 F         140.1442  139.7124  171.4323 F       1  UNL1       -0.2041
     22 C         140.2020  142.0519  170.3040 C.ar    1  UNL1        0.0593
     23 C         140.2044  142.8966  169.0645 C.ar    1  UNL1        0.1453
     24 F         140.2598  144.3915  169.1757 F       1  UNL1       -0.2040
     25 C         143.0468  141.8395  160.8262 C.2     1  UNL1        0.2252
     26 O         144.1322  141.9684  161.8534 O.2     1  UNL1       -0.2750
     27 N         142.3362  140.5308  160.6462 N.am    1  UNL1       -0.3010
     28 H         141.6238  140.4462  159.9720 H       1  UNL1        0.1497
     29 C         142.7111  139.3511  161.4933 C.3     1  UNL1        0.1089
     30 C         143.4933  138.1828  162.0160 C.3     1  UNL1        0.0274
     31 C         144.0142  138.9742  160.8531 C.3     1  UNL1        0.0274
     32 C         141.5382  139.3182  162.4277 C.ar    1  UNL1        0.1549
     33 N         141.3002  138.1145  163.2906 N.ar    1  UNL1       -0.2276
     34 C         140.1272  138.0815  164.2250 C.ar    1  UNL1        0.1019
     35 C         139.1923  139.2523  164.2966 C.ar    1  UNL1        0.0413
     36 C         139.4303  140.4560  163.4338 C.ar    1  UNL1        0.1019
     37 N         140.6032  140.4890  162.4993 N.ar    1  UNL1       -0.2276
@<TRIPOS>BOND
     1     8     9    2
     2     9    10   am
     3     1    10    1
     4     1     2    1
     5     2     3    1
     6     3     4    1
     7     4     5    1
     8     5     6    1
     9     6    25    1
    10    25    26    2
    11    25    27   am
    12    27    29    1
    13    29    32    1
    14    32    33   ar
    15    33    34   ar
    16    34    35   ar
    17    35    36   ar
    18    36    37   ar
    19    29    30    1
    20    30    31    1
    21     9    12    1
    22    12    13   ar
    23    13    14   ar
    24    14    17    1
    25    17    18   ar
    26    18    19   ar
    27    19    20   ar
    28    20    21    1
    29    20    22   ar
    30    22    23   ar
    31    23    24    1
    32    14    15   ar
    33    15    16   ar
    34     6     1    1
    35    31    29    1
    36    16    12   ar
    37    37    32   ar
    38    23    17   ar
    39    10    11    1
    40     4     7    1
    41    27    28    1
@<TRIPOS>MOLECULE
*****
 37 41 0 0 0
SMALL
GASTEIGER

@<TRIPOS>ATOM
      1 C         143.0024  141.0897  160.0253 C.3     1  UNL1        0.0832
      2 C         143.7454  140.1688  159.1035 C.3     1  UNL1        0.0372
      3 C         144.3881  140.7097  157.8608 C.3     1  UNL1        0.0703
      4 N         144.2878  142.1715  157.5400 N.3     1  UNL1       -0.2970
      5 C         143.5449  143.0925  158.4618 C.3     1  UNL1        0.0794
      6 C         142.9022  142.5516  159.7045 C.3     1  UNL1        0.1101
      7 H         143.8379  142.2425  156.6273 H       1  UNL1        0.1233
      8 O         144.6576  140.6016  162.4794 O.2     1  UNL1       -0.2684
      9 C         143.1873  140.3048  162.4951 C.2     1  UNL1        0.2669
     10 N         142.3597  140.5488  161.2681 N.am    1  UNL1       -0.3006
     11 H         141.3947  140.3540  161.2784 H       1  UNL1        0.1497
     12 C         142.5446  139.7639  163.7378 C.ar    1  UNL1        0.1761
     13 C         142.5236  140.4306  165.0814 C.ar    1  UNL1        0.0673
     14 C         141.7761  139.5402  166.0292 C.ar    1  UNL1        0.1792
     15 O         141.3351  138.3231  165.2713 O.2     1  UNL1       -0.3532
     16 N         141.8101  138.4614  163.8553 N.ar    1  UNL1       -0.0723
     17 C         141.5154  139.8180  167.4800 C.ar    1  UNL1        0.0648
     18 C         142.6621  139.9245  168.4411 C.ar    1  UNL1        0.0077
     19 C         142.4014  140.2023  169.8919 C.ar    1  UNL1        0.0299
     20 C         140.9940  140.3735  170.3815 C.ar    1  UNL1        0.1424
     21 F         140.7333  140.6513  171.8323 F       1  UNL1       -0.2041
     22 C         139.8474  140.2670  169.4205 C.ar    1  UNL1        0.0593
     23 C         140.1081  139.9892  167.9697 C.ar    1  UNL1        0.1453
     24 F         138.9614  139.8826  167.0086 F       1  UNL1       -0.2040
     25 C         142.1592  143.4725  160.6264 C.2     1  UNL1        0.2252
     26 O         142.9071  144.2682  161.6547 O.2     1  UNL1       -0.2750
     27 N         140.6682  143.5978  160.5200 N.am    1  UNL1       -0.3010
     28 H         140.1773  143.0755  159.8451 H       1  UNL1        0.1497
     29 C         139.9252  144.5186  161.4418 C.3     1  UNL1        0.1089
     30 C         139.3905  145.7876  162.0368 C.3     1  UNL1        0.0274
     31 C         140.2671  145.8405  160.8207 C.3     1  UNL1        0.0274
     32 C         139.3252  143.5167  162.3831 C.ar    1  UNL1        0.1549
     33 N         138.0060  142.8802  162.0599 N.ar    1  UNL1       -0.2276
     34 C         137.4059  141.8782  163.0012 C.ar    1  UNL1        0.1019
     35 C         138.1252  141.5126  164.2656 C.ar    1  UNL1        0.0413
     36 C         139.4445  142.1490  164.5888 C.ar    1  UNL1        0.1019
     37 N         140.0445  143.1511  163.6476 N.ar    1  UNL1       -0.2276
@<TRIPOS>BOND
     1     8     9    2
     2     9    10   am
     3     1    10    1
     4     1     2    1
     5     2     3    1
     6     3     4    1
     7     4     5    1
     8     5     6    1
     9     6    25    1
    10    25    26    2
    11    25    27   am
    12    27    29    1
    13    29    32    1
    14    32    33   ar
    15    33    34   ar
    16    34    35   ar
    17    35    36   ar
    18    36    37   ar
    19    29    30    1
    20    30    31    1
    21     9    12    1
    22    12    13   ar
    23    13    14   ar
    24    14    17    1
    25    17    18   ar
    26    18    19   ar
    27    19    20   ar
    28    20    21    1
    29    20    22   ar
    30    22    23   ar
    31    23    24    1
    32    14    15   ar
    33    15    16   ar
    34     6     1    1
    35    31    29    1
    36    16    12   ar
    37    37    32   ar
    38    23    17   ar
    39    10    11    1
    40     4     7    1
    41    27    28    1
@<TRIPOS>MOLECULE
*****
 37 41 0 0 0
SMALL
GASTEIGER

@<TRIPOS>ATOM
      1 C         143.2750  141.8778  160.9444 C.3     1  UNL1        0.0832
      2 C         144.5789  142.3315  160.3580 C.3     1  UNL1        0.0372
      3 C         144.6861  142.6005  158.8863 C.3     1  UNL1        0.0703
      4 N         143.4894  142.4158  158.0009 N.3     1  UNL1       -0.2970
      5 C         142.1855  141.9621  158.5874 C.3     1  UNL1        0.0794
      6 C         142.0783  141.6931  160.0591 C.3     1  UNL1        0.1101
      7 H         143.7495  141.7281  157.2940 H       1  UNL1        0.1233
      8 O         143.5824  139.0806  161.9842 O.2     1  UNL1       -0.2684
      9 C         143.3214  140.2101  162.9362 C.2     1  UNL1        0.2669
     10 N         143.1677  141.6087  162.4163 N.am    1  UNL1       -0.3006
     11 H         142.9964  142.3501  163.0410 H       1  UNL1        0.1497
     12 C         143.2142  139.9411  164.4079 C.ar    1  UNL1        0.1761
     13 C         142.5237  140.8118  165.4154 C.ar    1  UNL1        0.0673
     14 C         142.6614  140.1629  166.7607 C.ar    1  UNL1        0.1792
     15 O         143.4369  138.8911  166.5847 O.2     1  UNL1       -0.3532
     16 N         143.7785  138.7540  165.1305 N.ar    1  UNL1       -0.0723
     17 C         142.1188  140.6928  168.0549 C.ar    1  UNL1        0.0648
     18 C         141.0200  139.9582  168.7643 C.ar    1  UNL1        0.0077
     19 C         140.4775  140.4881  170.0584 C.ar    1  UNL1        0.0299
     20 C         141.0336  141.7525  170.6432 C.ar    1  UNL1        0.1424
     21 F         140.4910  142.2824  171.9373 F       1  UNL1       -0.2041
     22 C         142.1323  142.4870  169.9338 C.ar    1  UNL1        0.0593
     23 C         142.6748  141.9572  168.6397 C.ar    1  UNL1        0.1453
     24 F         143.7736  142.6917  167.9303 F       1  UNL1       -0.2040
     25 C         140.7743  141.2394  160.6456 C.2     1  UNL1        0.2252
     26 O         140.0042  142.1496  161.5558 O.2     1  UNL1       -0.2750
     27 N         140.2405  139.8755  160.3219 N.am    1  UNL1       -0.3010
     28 H         140.7460  139.2781  159.7245 H       1  UNL1        0.1497
     29 C         138.9366  139.4218  160.9083 C.3     1  UNL1        0.1089
     30 C         137.4628  139.1825  161.0515 C.3     1  UNL1        0.0274
     31 C         137.9944  139.8819  159.8356 C.3     1  UNL1        0.0274
     32 C         139.4259  138.8041  162.1846 C.ar    1  UNL1        0.1549
     33 N         140.4221  137.6835  162.1419 N.ar    1  UNL1       -0.2276
     34 C         140.9115  137.0658  163.4182 C.ar    1  UNL1        0.1019
     35 C         140.4046  137.5687  164.7373 C.ar    1  UNL1        0.0413
     36 C         139.4084  138.6893  164.7801 C.ar    1  UNL1        0.1019
     37 N         138.9190  139.3071  163.5038 N.ar    1  UNL1       -0.2276
@<TRIPOS>BOND
     1     8     9    2
     2     9    10   am
     3     1    10    1
     4     1     2    1
     5     2     3    1
     6     3     4    1
     7     4     5    1
     8     5     6    1
     9     6    25    1
    10    25    26    2
    11    25    27   am
    12    27    29    1
    13    29    32    1
    14    32    33   ar
    15    33    34   ar
    16    34    35   ar
    17    35    36   ar
    18    36    37   ar
    19    29    30    1
    20    30    31    1
    21     9    12    1
    22    12    13   ar
    23    13    14   ar
    24    14    17    1
    25    17    18   ar
    26    18    19   ar
    27    19    20   ar
    28    20    21    1
    29    20    22   ar
    30    22    23   ar
    31    23    24    1
    32    14    15   ar
    33    15    16   ar
    34     6     1    1
    35    31    29    1
    36    16    12   ar
    37    37    32   ar
    38    23    17   ar
    39    10    11    1
    40     4     7    1
    41    27    28    1
@<TRIPOS>MOLECULE
*****
 37 41 0 0 0
SMALL
GASTEIGER

@<TRIPOS>ATOM
      1 C         142.8523  139.7608  161.1408 C.3     1  UNL1        0.0832
      2 C         143.0043  138.2689  161.1061 C.3     1  UNL1        0.0372
      3 C         143.1172  137.5570  159.7907 C.3     1  UNL1        0.0703
      4 N         143.0782  138.3369  158.5100 N.3     1  UNL1       -0.2970
      5 C         142.9263  139.8288  158.5447 C.3     1  UNL1        0.0794
      6 C         142.8134  140.5407  159.8601 C.3     1  UNL1        0.1101
      7 H         142.2944  137.9737  157.9678 H       1  UNL1        0.1233
      8 O         145.2919  140.9558  162.4139 O.2     1  UNL1       -0.2684
      9 C         143.9591  141.0703  163.0928 C.2     1  UNL1        0.2669
     10 N         142.7394  140.4728  162.4563 N.am    1  UNL1       -0.3006
     11 H         141.8647  140.5479  162.9019 H       1  UNL1        0.1497
     12 C         143.8463  141.7823  164.4082 C.ar    1  UNL1        0.1761
     13 C         142.9547  141.3906  165.5491 C.ar    1  UNL1        0.0673
     14 C         143.1625  142.3772  166.6597 C.ar    1  UNL1        0.1792
     15 O         144.1826  143.3787  166.2051 O.2     1  UNL1       -0.3532
     16 N         144.6051  143.0110  164.8137 N.ar    1  UNL1       -0.0723
     17 C         142.4716  142.3646  167.9910 C.ar    1  UNL1        0.0648
     18 C         143.2630  142.1356  169.2446 C.ar    1  UNL1        0.0077
     19 C         142.5721  142.1230  170.5759 C.ar    1  UNL1        0.0299
     20 C         141.0898  142.3394  170.6537 C.ar    1  UNL1        0.1424
     21 F         140.3989  142.3268  171.9851 F       1  UNL1       -0.2041
     22 C         140.2985  142.5684  169.4003 C.ar    1  UNL1        0.0593
     23 C         140.9894  142.5810  168.0689 C.ar    1  UNL1        0.1453
     24 F         140.1980  142.8100  166.8154 F       1  UNL1       -0.2040
     25 C         142.6614  142.0327  159.8949 C.2     1  UNL1        0.2252
     26 O         143.8740  142.9074  160.0149 O.2     1  UNL1       -0.2750
     27 N         141.2969  142.6497  159.8096 N.am    1  UNL1       -0.3010
     28 H         140.5011  142.0756  159.7308 H       1  UNL1        0.1497
     29 C         141.1449  144.1416  159.8444 C.3     1  UNL1        0.1089
     30 C         141.1405  145.5691  159.3837 C.3     1  UNL1        0.0274
     31 C         141.5169  144.4743  158.4298 C.3     1  UNL1        0.0274
     32 C         140.7203  144.3270  161.2710 C.ar    1  UNL1        0.1549
     33 N         141.7451  144.3145  162.3662 N.ar    1  UNL1       -0.2276
     34 C         141.3204  144.4999  163.7930 C.ar    1  UNL1        0.1019
     35 C         139.8709  144.6979  164.1243 C.ar    1  UNL1        0.0413
     36 C         138.8461  144.7103  163.0290 C.ar    1  UNL1        0.1019
     37 N         139.2707  144.5249  161.6023 N.ar    1  UNL1       -0.2276
@<TRIPOS>BOND
     1     8     9    2
     2     9    10   am
     3     1    10    1
     4     1     2    1
     5     2     3    1
     6     3     4    1
     7     4     5    1
     8     5     6    1
     9     6    25    1
    10    25    26    2
    11    25    27   am
    12    27    29    1
    13    29    32    1
    14    32    33   ar
    15    33    34   ar
    16    34    35   ar
    17    35    36   ar
    18    36    37   ar
    19    29    30    1
    20    30    31    1
    21     9    12    1
    22    12    13   ar
    23    13    14   ar
    24    14    17    1
    25    17    18   ar
    26    18    19   ar
    27    19    20   ar
    28    20    21    1
    29    20    22   ar
    30    22    23   ar
    31    23    24    1
    32    14    15   ar
    33    15    16   ar
    34     6     1    1
    35    31    29    1
    36    16    12   ar
    37    37    32   ar
    38    23    17   ar
    39    10    11    1
    40     4     7    1
    41    27    28    1
