@<TRIPOS>MOLECULE
*****
 32 36 0 0 0
SMALL
GASTEIGER

@<TRIPOS>ATOM
      1 C         140.3037  142.2382  159.6956 C.ar    1  UNL1        0.0223
      2 C         139.8579  141.0718  158.8645 C.ar    1  UNL1        0.0989
      3 N         139.3530  139.8260  159.5301 N.ar    1  UNL1       -0.2437
      4 C         139.2940  139.7466  161.0269 C.ar    1  UNL1        0.0844
      5 C         138.7615  138.4212  161.4847 C.ar    1  UNL1        0.0192
      6 C         138.5433  137.9347  162.8868 C.ar    1  UNL1        0.0016
      7 C         138.8037  138.6536  164.1773 C.ar    1  UNL1        0.0032
      8 C         138.4457  137.8035  165.3601 C.ar    1  UNL1        0.0014
      9 C         138.6306  138.3362  166.7500 C.ar    1  UNL1        0.0159
     10 C         139.1736  139.7190  166.9572 C.ar    1  UNL1        0.0659
     11 C         139.5315  140.5692  165.7744 C.ar    1  UNL1        0.0191
     12 C         139.3466  140.0365  164.3844 C.ar    1  UNL1        0.0403
     13 C         139.7632  141.0420  163.3522 C.ar    1  UNL1        0.1970
     14 O         140.2703  142.3494  163.8847 O.2     1  UNL1       -0.2865
     15 C         139.7398  140.9130  161.8580 C.ar    1  UNL1        0.0566
     16 C         140.2447  142.1588  161.1924 C.ar    1  UNL1        0.0063
     17 C         141.3231  145.9288  156.0595 C.3     1  UNL1        0.1538
     18 N         141.2771  145.1804  157.3586 N.ar    1  UNL1       -0.2473
     19 C         140.6064  143.8592  157.5918 C.ar    1  UNL1        0.0967
     20 C         140.8086  143.4841  159.0300 C.ar    1  UNL1        0.0411
     21 C         141.6042  144.5735  159.6857 C.ar    1  UNL1        0.1217
     22 N         141.8938  145.6219  158.6528 N.ar    1  UNL1       -0.1676
     23 N         139.3585  140.2518  168.3472 N.pl3   1  UNL1       -0.2052
     24 H         138.6130  140.2211  168.9894 H       1  UNL1        0.1748
     25 S         140.6795  140.8313  168.7586 S.O2    1  UNL1        0.1132
     26 O         140.0400  142.1794  168.9127 O.2     1  UNL1       -0.1379
     27 O         141.3190  139.4832  168.6045 O.2     1  UNL1       -0.1379
     28 N         142.0004  141.4109  169.1700 N.3     1  UNL1       -0.1371
     29 C         142.9153  142.4632  168.6173 C.3     1  UNL1        0.1339
     30 C         143.8685  142.2305  169.7518 C.3     1  UNL1        0.1963
     31 F         145.1895  142.8100  170.1632 F       1  UNL1       -0.2342
     32 C         142.9537  141.1781  170.3046 C.3     1  UNL1        0.1339
@<TRIPOS>BOND
     1    17    18    1
     2    18    19   ar
     3    19    20   ar
     4    20     1    1
     5     1     2   ar
     6     2     3   ar
     7     3     4   ar
     8     4     5   ar
     9     5     6   ar
    10     6     7   ar
    11     7     8   ar
    12     8     9   ar
    13     9    10   ar
    14    10    23    1
    15    23    25    1
    16    25    26    2
    17    25    27    2
    18    25    28    1
    19    28    29    1
    20    29    30    1
    21    30    31    1
    22    30    32    1
    23    10    11   ar
    24    11    12   ar
    25    12    13   ar
    26    13    14    2
    27    13    15   ar
    28    15    16   ar
    29    20    21   ar
    30    21    22   ar
    31    22    18   ar
    32    16     1   ar
    33    15     4   ar
    34    12     7   ar
    35    32    28    1
    36    23    24    1
@<TRIPOS>MOLECULE
*****
 32 36 0 0 0
SMALL
GASTEIGER

@<TRIPOS>ATOM
      1 C         142.6822  140.0084  167.0255 C.ar    1  UNL1        0.0223
      2 C         143.3534  138.7306  166.6174 C.ar    1  UNL1        0.0989
      3 N         143.7722  138.5256  165.1917 N.ar    1  UNL1       -0.2437
      4 C         143.5199  139.5984  164.1742 C.ar    1  UNL1        0.0844
      5 C         144.0135  139.1934  162.8169 C.ar    1  UNL1        0.0192
      6 C         143.9579  139.9662  161.5324 C.ar    1  UNL1        0.0016
      7 C         143.3949  141.3348  161.2882 C.ar    1  UNL1        0.0032
      8 C         143.5409  141.7390  159.8510 C.ar    1  UNL1        0.0014
      9 C         143.0405  143.0769  159.3936 C.ar    1  UNL1        0.0159
     10 C         142.3940  144.0109  160.3733 C.ar    1  UNL1        0.0659
     11 C         142.2479  143.6068  161.8104 C.ar    1  UNL1        0.0191
     12 C         142.7484  142.2687  162.2679 C.ar    1  UNL1        0.0403
     13 C         142.5053  142.0646  163.7340 C.ar    1  UNL1        0.1970
     14 O         141.8295  143.1990  164.4456 O.2     1  UNL1       -0.2865
     15 C         142.8486  140.8762  164.5823 C.ar    1  UNL1        0.0566
     16 C         142.4298  141.0812  166.0079 C.ar    1  UNL1        0.0063
     17 C         140.6142  142.1296  171.3965 C.3     1  UNL1        0.1538
     18 N         141.3127  141.1885  170.4603 N.ar    1  UNL1       -0.2473
     19 C         141.5221  141.4009  168.9902 C.ar    1  UNL1        0.0967
     20 C         142.2632  140.2135  168.4512 C.ar    1  UNL1        0.0411
     21 C         142.5120  139.2671  169.5880 C.ar    1  UNL1        0.1217
     22 N         141.9245  139.8696  170.8297 N.ar    1  UNL1       -0.1676
     23 N         141.8935  145.3490  159.9159 N.pl3   1  UNL1       -0.2052
     24 H         142.1306  146.1614  160.4189 H       1  UNL1        0.1748
     25 S         141.0317  145.4491  158.6923 S.O2    1  UNL1        0.1132
     26 O         139.8979  144.8108  159.4387 O.2     1  UNL1       -0.1379
     27 O         142.1655  146.0873  157.9459 O.2     1  UNL1       -0.1379
     28 N         140.1699  145.5491  157.4687 N.3     1  UNL1       -0.1371
     29 C         139.6729  146.6745  156.6106 C.3     1  UNL1        0.1339
     30 C         138.9511  145.6907  155.7382 C.3     1  UNL1        0.1963
     31 F         138.0893  145.7907  154.5146 F       1  UNL1       -0.2342
     32 C         139.4481  144.5652  156.5963 C.3     1  UNL1        0.1339
@<TRIPOS>BOND
     1    17    18    1
     2    18    19   ar
     3    19    20   ar
     4    20     1    1
     5     1     2   ar
     6     2     3   ar
     7     3     4   ar
     8     4     5   ar
     9     5     6   ar
    10     6     7   ar
    11     7     8   ar
    12     8     9   ar
    13     9    10   ar
    14    10    23    1
    15    23    25    1
    16    25    26    2
    17    25    27    2
    18    25    28    1
    19    28    29    1
    20    29    30    1
    21    30    31    1
    22    30    32    1
    23    10    11   ar
    24    11    12   ar
    25    12    13   ar
    26    13    14    2
    27    13    15   ar
    28    15    16   ar
    29    20    21   ar
    30    21    22   ar
    31    22    18   ar
    32    16     1   ar
    33    15     4   ar
    34    12     7   ar
    35    32    28    1
    36    23    24    1
@<TRIPOS>MOLECULE
*****
 32 36 0 0 0
SMALL
GASTEIGER

@<TRIPOS>ATOM
      1 C         139.5017  140.2329  166.8827 C.ar    1  UNL1        0.0223
      2 C         138.7133  139.0089  166.5220 C.ar    1  UNL1        0.0989
      3 N         138.4086  138.7100  165.0840 N.ar    1  UNL1       -0.2437
      4 C         138.8924  139.6351  164.0068 C.ar    1  UNL1        0.0844
      5 C         138.4816  139.1545  162.6466 C.ar    1  UNL1        0.0192
      6 C         138.7578  139.7793  161.3111 C.ar    1  UNL1        0.0016
      7 C         139.5130  141.0389  161.0062 C.ar    1  UNL1        0.0032
      8 C         139.5572  141.3079  159.5311 C.ar    1  UNL1        0.0014
      9 C         140.2668  142.5228  159.0112 C.ar    1  UNL1        0.0159
     10 C         140.9323  143.4687  159.9663 C.ar    1  UNL1        0.0659
     11 C         140.8882  143.1998  161.4413 C.ar    1  UNL1        0.0191
     12 C         140.1785  141.9848  161.9613 C.ar    1  UNL1        0.0403
     13 C         140.2532  141.9048  163.4573 C.ar    1  UNL1        0.1970
     14 O         140.9989  143.0177  164.1321 O.2     1  UNL1       -0.2865
     15 C         139.6808  140.8590  164.3676 C.ar    1  UNL1        0.0566
     16 C         139.9855  141.1580  165.8056 C.ar    1  UNL1        0.0063
     17 C         141.9300  141.9294  171.2539 C.3     1  UNL1        0.1538
     18 N         140.9226  141.3117  170.3299 N.ar    1  UNL1       -0.2473
     19 C         141.0327  141.2249  168.8365 C.ar    1  UNL1        0.0967
     20 C         139.8064  140.5319  168.3208 C.ar    1  UNL1        0.0411
     21 C         138.9384  140.1904  169.4954 C.ar    1  UNL1        0.1217
     22 N         139.6282  140.6724  170.7372 N.ar    1  UNL1       -0.1676
     23 N         141.6420  144.6837  159.4465 N.pl3   1  UNL1       -0.2052
     24 H         142.4661  144.9975  159.8843 H       1  UNL1        0.1748
     25 S         141.0961  145.4206  158.2595 S.O2    1  UNL1        0.1132
     26 O         142.2818  144.9907  157.4474 O.2     1  UNL1       -0.1379
     27 O         139.9105  145.8505  159.0715 O.2     1  UNL1       -0.1379
     28 N         140.5502  146.1574  157.0724 N.3     1  UNL1       -0.1371
     29 C         139.3827  147.0685  156.8346 C.3     1  UNL1        0.1339
     30 C         139.7782  147.1995  155.3937 C.3     1  UNL1        0.1963
     31 F         139.2324  147.9363  154.2066 F       1  UNL1       -0.2342
     32 C         140.9459  146.2883  155.6314 C.3     1  UNL1        0.1339
@<TRIPOS>BOND
     1    17    18    1
     2    18    19   ar
     3    19    20   ar
     4    20     1    1
     5     1     2   ar
     6     2     3   ar
     7     3     4   ar
     8     4     5   ar
     9     5     6   ar
    10     6     7   ar
    11     7     8   ar
    12     8     9   ar
    13     9    10   ar
    14    10    23    1
    15    23    25    1
    16    25    26    2
    17    25    27    2
    18    25    28    1
    19    28    29    1
    20    29    30    1
    21    30    31    1
    22    30    32    1
    23    10    11   ar
    24    11    12   ar
    25    12    13   ar
    26    13    14    2
    27    13    15   ar
    28    15    16   ar
    29    20    21   ar
    30    21    22   ar
    31    22    18   ar
    32    16     1   ar
    33    15     4   ar
    34    12     7   ar
    35    32    28    1
    36    23    24    1
@<TRIPOS>MOLECULE
*****
 32 36 0 0 0
SMALL
GASTEIGER

@<TRIPOS>ATOM
      1 C         139.8808  138.6593  157.3297 C.ar    1  UNL1        0.0223
      2 C         139.5454  140.0060  156.7608 C.ar    1  UNL1        0.0989
      3 N         139.0632  141.1026  157.6636 N.ar    1  UNL1       -0.2437
      4 C         138.9164  140.8523  159.1352 C.ar    1  UNL1        0.0844
      5 C         138.4233  142.0741  159.8523 C.ar    1  UNL1        0.0192
      6 C         138.1438  142.2508  161.3155 C.ar    1  UNL1        0.0016
      7 C         138.2885  141.2494  162.4228 C.ar    1  UNL1        0.0032
      8 C         137.9012  141.8374  163.7474 C.ar    1  UNL1        0.0014
      9 C         137.9738  140.9999  164.9896 C.ar    1  UNL1        0.0159
     10 C         138.4335  139.5745  164.9074 C.ar    1  UNL1        0.0659
     11 C         138.8208  138.9865  163.5829 C.ar    1  UNL1        0.0191
     12 C         138.7482  139.8240  162.3406 C.ar    1  UNL1        0.0403
     13 C         139.1770  139.0479  161.1306 C.ar    1  UNL1        0.1970
     14 O         139.5848  137.6262  161.3803 O.2     1  UNL1       -0.2865
     15 C         139.2518  139.5056  159.7042 C.ar    1  UNL1        0.0566
     16 C         139.7340  138.4091  158.8014 C.ar    1  UNL1        0.0063
     17 C         142.9294  134.9779  155.0858 C.3     1  UNL1        0.1538
     18 N         141.7644  135.8705  155.3956 N.ar    1  UNL1       -0.2473
     19 C         141.7130  136.9106  156.4752 C.ar    1  UNL1        0.0967
     20 C         140.3630  137.5627  156.4269 C.ar    1  UNL1        0.0411
     21 C         139.5800  136.9256  155.3175 C.ar    1  UNL1        0.1217
     22 N         140.4460  135.8798  154.6800 N.ar    1  UNL1       -0.1676
     23 N         138.5061  138.7369  166.1497 N.pl3   1  UNL1       -0.2052
     24 H         138.1706  137.8114  166.1398 H       1  UNL1        0.1748
     25 S         139.0898  139.3096  167.4072 S.O2    1  UNL1        0.1132
     26 O         137.8136  139.0096  168.1362 O.2     1  UNL1       -0.1379
     27 O         140.3660  139.6095  166.6784 O.2     1  UNL1       -0.1379
     28 N         139.6735  139.8823  168.6648 N.3     1  UNL1       -0.1371
     29 C         139.1173  140.5814  169.8697 C.3     1  UNL1        0.1339
     30 C         140.4989  140.6922  170.4432 C.3     1  UNL1        0.1963
     31 F         141.0826  141.2648  171.7007 F       1  UNL1       -0.2342
     32 C         141.0551  139.9930  169.2383 C.3     1  UNL1        0.1339
@<TRIPOS>BOND
     1    17    18    1
     2    18    19   ar
     3    19    20   ar
     4    20     1    1
     5     1     2   ar
     6     2     3   ar
     7     3     4   ar
     8     4     5   ar
     9     5     6   ar
    10     6     7   ar
    11     7     8   ar
    12     8     9   ar
    13     9    10   ar
    14    10    23    1
    15    23    25    1
    16    25    26    2
    17    25    27    2
    18    25    28    1
    19    28    29    1
    20    29    30    1
    21    30    31    1
    22    30    32    1
    23    10    11   ar
    24    11    12   ar
    25    12    13   ar
    26    13    14    2
    27    13    15   ar
    28    15    16   ar
    29    20    21   ar
    30    21    22   ar
    31    22    18   ar
    32    16     1   ar
    33    15     4   ar
    34    12     7   ar
    35    32    28    1
    36    23    24    1
@<TRIPOS>MOLECULE
*****
 32 36 0 0 0
SMALL
GASTEIGER

@<TRIPOS>ATOM
      1 C         141.0563  141.0286  167.9073 C.ar    1  UNL1        0.0223
      2 C         139.8690  140.2486  168.3887 C.ar    1  UNL1        0.0989
      3 N         139.0611  139.4378  167.4193 N.ar    1  UNL1       -0.2437
      4 C         139.4406  139.4068  165.9685 C.ar    1  UNL1        0.0844
      5 C         138.5069  138.5405  165.1762 C.ar    1  UNL1        0.0192
      6 C         138.5299  138.2402  163.7067 C.ar    1  UNL1        0.0016
      7 C         139.4924  138.7321  162.6666 C.ar    1  UNL1        0.0032
      8 C         139.1570  138.1891  161.3091 C.ar    1  UNL1        0.0014
      9 C         139.9987  138.5597  160.1242 C.ar    1  UNL1        0.0159
     10 C         141.1758  139.4733  160.2967 C.ar    1  UNL1        0.0659
     11 C         141.5112  140.0163  161.6542 C.ar    1  UNL1        0.0191
     12 C         140.6695  139.6457  162.8392 C.ar    1  UNL1        0.0403
     13 C         141.1749  140.2931  164.0944 C.ar    1  UNL1        0.1970
     14 O         142.3875  141.1616  163.9359 O.2     1  UNL1       -0.2865
     15 C         140.6279  140.1868  165.4870 C.ar    1  UNL1        0.0566
     16 C         141.4358  140.9976  166.4564 C.ar    1  UNL1        0.0063
     17 C         145.1352  143.2217  170.4438 C.3     1  UNL1        0.1538
     18 N         143.7391  142.8475  170.0426 N.ar    1  UNL1       -0.2473
     19 C         143.3610  141.9282  168.9193 C.ar    1  UNL1        0.0967
     20 C         141.8643  141.8395  168.8767 C.ar    1  UNL1        0.0411
     21 C         141.3173  142.7040  169.9737 C.ar    1  UNL1        0.1217
     22 N         142.4760  143.3271  170.6942 N.ar    1  UNL1       -0.1676
     23 N         142.0176  139.8440  159.1117 N.pl3   1  UNL1       -0.2052
     24 H         142.2429  140.7875  158.9438 H       1  UNL1        0.1748
     25 S         142.5161  138.7770  158.1828 S.O2    1  UNL1        0.1132
     26 O         143.4076  138.2491  159.2675 O.2     1  UNL1       -0.1379
     27 O         141.6246  139.3048  157.0980 O.2     1  UNL1       -0.1379
     28 N         143.0146  137.7100  157.2538 N.3     1  UNL1       -0.1371
     29 C         143.6951  137.7005  155.9171 C.3     1  UNL1        0.1339
     30 C         143.7196  136.2010  155.9400 C.3     1  UNL1        0.1963
     31 F         144.2180  135.1339  155.0111 F       1  UNL1       -0.2342
     32 C         143.0390  136.2103  157.2767 C.3     1  UNL1        0.1339
@<TRIPOS>BOND
     1    17    18    1
     2    18    19   ar
     3    19    20   ar
     4    20     1    1
     5     1     2   ar
     6     2     3   ar
     7     3     4   ar
     8     4     5   ar
     9     5     6   ar
    10     6     7   ar
    11     7     8   ar
    12     8     9   ar
    13     9    10   ar
    14    10    23    1
    15    23    25    1
    16    25    26    2
    17    25    27    2
    18    25    28    1
    19    28    29    1
    20    29    30    1
    21    30    31    1
    22    30    32    1
    23    10    11   ar
    24    11    12   ar
    25    12    13   ar
    26    13    14    2
    27    13    15   ar
    28    15    16   ar
    29    20    21   ar
    30    21    22   ar
    31    22    18   ar
    32    16     1   ar
    33    15     4   ar
    34    12     7   ar
    35    32    28    1
    36    23    24    1
@<TRIPOS>MOLECULE
*****
 32 36 0 0 0
SMALL
GASTEIGER

@<TRIPOS>ATOM
      1 C         142.7129  137.6856  157.5817 C.ar    1  UNL1        0.0223
      2 C         143.3577  138.8616  156.9102 C.ar    1  UNL1        0.0989
      3 N         143.8582  140.0127  157.7315 N.ar    1  UNL1       -0.2437
      4 C         143.7139  139.9876  159.2243 C.ar    1  UNL1        0.0844
      5 C         144.2768  141.2292  159.8501 C.ar    1  UNL1        0.0192
      6 C         144.3338  141.6014  161.3022 C.ar    1  UNL1        0.0016
      7 C         143.8420  140.8238  162.4868 C.ar    1  UNL1        0.0032
      8 C         144.0953  141.5601  163.7690 C.ar    1  UNL1        0.0014
      9 C         143.6784  140.9546  165.0765 C.ar    1  UNL1        0.0159
     10 C         143.0082  139.6129  165.1018 C.ar    1  UNL1        0.0659
     11 C         142.7549  138.8766  163.8197 C.ar    1  UNL1        0.0191
     12 C         143.1719  139.4821  162.5122 C.ar    1  UNL1        0.0403
     13 C         142.8278  138.5866  161.3591 C.ar    1  UNL1        0.1970
     14 O         142.1534  137.2953  161.7166 O.2     1  UNL1       -0.2865
     15 C         143.0691  138.8116  159.8958 C.ar    1  UNL1        0.0566
     16 C         142.5686  137.6605  159.0746 C.ar    1  UNL1        0.0063
     17 C         142.1749  132.8661  155.4925 C.3     1  UNL1        0.1538
     18 N         141.9651  134.3192  155.8001 N.ar    1  UNL1       -0.2473
     19 C         142.7643  135.1396  156.7687 C.ar    1  UNL1        0.0967
     20 C         142.2124  136.5344  156.7604 C.ar    1  UNL1        0.0411
     21 C         141.0721  136.5760  155.7868 C.ar    1  UNL1        0.1217
     22 N         140.9193  135.2069  155.1932 N.ar    1  UNL1       -0.1676
     23 N         142.5912  139.0073  166.4094 N.pl3   1  UNL1       -0.2052
     24 H         142.8306  138.0756  166.6189 H       1  UNL1        0.1748
     25 S         141.8096  139.8213  167.3974 S.O2    1  UNL1        0.1132
     26 O         140.6431  139.8454  166.4547 O.2     1  UNL1       -0.1379
     27 O         142.9761  139.7973  168.3402 O.2     1  UNL1       -0.1379
     28 N         141.0280  140.6354  168.3856 N.3     1  UNL1       -0.1371
     29 C         140.0926  140.3206  169.5151 C.3     1  UNL1        0.1339
     30 C         139.9225  141.7866  169.7829 C.3     1  UNL1        0.1963
     31 F         139.1409  142.6007  170.7710 F       1  UNL1       -0.2342
     32 C         140.8579  142.1015  168.6533 C.3     1  UNL1        0.1339
@<TRIPOS>BOND
     1    17    18    1
     2    18    19   ar
     3    19    20   ar
     4    20     1    1
     5     1     2   ar
     6     2     3   ar
     7     3     4   ar
     8     4     5   ar
     9     5     6   ar
    10     6     7   ar
    11     7     8   ar
    12     8     9   ar
    13     9    10   ar
    14    10    23    1
    15    23    25    1
    16    25    26    2
    17    25    27    2
    18    25    28    1
    19    28    29    1
    20    29    30    1
    21    30    31    1
    22    30    32    1
    23    10    11   ar
    24    11    12   ar
    25    12    13   ar
    26    13    14    2
    27    13    15   ar
    28    15    16   ar
    29    20    21   ar
    30    21    22   ar
    31    22    18   ar
    32    16     1   ar
    33    15     4   ar
    34    12     7   ar
    35    32    28    1
    36    23    24    1
@<TRIPOS>MOLECULE
*****
 32 36 0 0 0
SMALL
GASTEIGER

@<TRIPOS>ATOM
      1 C         140.4285  139.8261  166.0719 C.ar    1  UNL1        0.0223
      2 C         138.9639  140.1497  166.0646 C.ar    1  UNL1        0.0989
      3 N         138.1910  140.0990  164.7801 N.ar    1  UNL1       -0.2437
      4 C         138.8827  139.7246  163.5029 C.ar    1  UNL1        0.0844
      5 C         137.9329  139.7345  162.3420 C.ar    1  UNL1        0.0192
      6 C         138.2130  139.4231  160.9016 C.ar    1  UNL1        0.0016
      7 C         139.5122  139.0250  160.2665 C.ar    1  UNL1        0.0032
      8 C         139.3560  138.8044  158.7910 C.ar    1  UNL1        0.0014
      9 C         140.5397  138.3988  157.9639 C.ar    1  UNL1        0.0159
     10 C         141.8796  138.2136  158.6121 C.ar    1  UNL1        0.0659
     11 C         142.0359  138.4342  160.0875 C.ar    1  UNL1        0.0191
     12 C         140.8522  138.8399  160.9147 C.ar    1  UNL1        0.0403
     13 C         141.2239  139.0072  162.3584 C.ar    1  UNL1        0.1970
     14 O         142.6622  138.7462  162.6945 O.2     1  UNL1       -0.2865
     15 C         140.3473  139.4009  163.5101 C.ar    1  UNL1        0.0566
     16 C         141.1202  139.4516  164.7946 C.ar    1  UNL1        0.0063
     17 C         141.7649  140.7531  171.0954 C.3     1  UNL1        0.1538
     18 N         141.8157  140.3029  169.6655 N.ar    1  UNL1       -0.2473
     19 C         140.7252  140.4698  168.6493 C.ar    1  UNL1        0.0967
     20 C         141.2015  139.8768  167.3564 C.ar    1  UNL1        0.0411
     21 C         142.5866  139.3434  167.5736 C.ar    1  UNL1        0.1217
     22 N         142.9662  139.6068  169.0007 N.ar    1  UNL1       -0.1676
     23 N         143.0634  137.8079  157.7849 N.pl3   1  UNL1       -0.2052
     24 H         143.9104  138.3039  157.8611 H       1  UNL1        0.1748
     25 S         142.9566  136.6465  156.8418 S.O2    1  UNL1        0.1132
     26 O         143.0177  135.6983  158.0026 O.2     1  UNL1       -0.1379
     27 O         142.8955  137.5945  155.6810 O.2     1  UNL1       -0.1379
     28 N         142.8498  135.4849  155.8986 N.3     1  UNL1       -0.1371
     29 C         142.8761  135.3235  154.4076 C.3     1  UNL1        0.1339
     30 C         142.6987  133.8424  154.5648 C.3     1  UNL1        0.1963
     31 F         142.5918  132.6808  153.6217 F       1  UNL1       -0.2342
     32 C         142.6723  134.0038  156.0559 C.3     1  UNL1        0.1339
@<TRIPOS>BOND
     1    17    18    1
     2    18    19   ar
     3    19    20   ar
     4    20     1    1
     5     1     2   ar
     6     2     3   ar
     7     3     4   ar
     8     4     5   ar
     9     5     6   ar
    10     6     7   ar
    11     7     8   ar
    12     8     9   ar
    13     9    10   ar
    14    10    23    1
    15    23    25    1
    16    25    26    2
    17    25    27    2
    18    25    28    1
    19    28    29    1
    20    29    30    1
    21    30    31    1
    22    30    32    1
    23    10    11   ar
    24    11    12   ar
    25    12    13   ar
    26    13    14    2
    27    13    15   ar
    28    15    16   ar
    29    20    21   ar
    30    21    22   ar
    31    22    18   ar
    32    16     1   ar
    33    15     4   ar
    34    12     7   ar
    35    32    28    1
    36    23    24    1
@<TRIPOS>MOLECULE
*****
 32 36 0 0 0
SMALL
GASTEIGER

@<TRIPOS>ATOM
      1 C         143.9139  130.1258  156.6235 C.ar    1  UNL1        0.0223
      2 C         143.5652  129.7731  155.2079 C.ar    1  UNL1        0.0989
      3 N         143.0872  130.8379  154.2657 N.ar    1  UNL1       -0.2437
      4 C         142.9579  132.2553  154.7391 C.ar    1  UNL1        0.0844
      5 C         142.4664  133.1559  153.6449 C.ar    1  UNL1        0.0192
      6 C         142.2021  134.6316  153.6959 C.ar    1  UNL1        0.0016
      7 C         142.3642  135.5711  154.8539 C.ar    1  UNL1        0.0032
      8 C         141.9885  136.9739  154.4782 C.ar    1  UNL1        0.0014
      9 C         142.0791  138.0725  155.4953 C.ar    1  UNL1        0.0159
     10 C         142.5454  137.7685  156.8882 C.ar    1  UNL1        0.0659
     11 C         142.9211  136.3658  157.2640 C.ar    1  UNL1        0.0191
     12 C         142.8305  135.2671  156.2468 C.ar    1  UNL1        0.0403
     13 C         143.2500  133.9483  156.8257 C.ar    1  UNL1        0.1970
     14 O         143.6679  133.9734  158.2661 O.2     1  UNL1       -0.2865
     15 C         143.3066  132.6080  156.1547 C.ar    1  UNL1        0.0566
     16 C         143.7846  131.5433  157.0969 C.ar    1  UNL1        0.0063
     17 C         144.9832  127.4432  161.0441 C.3     1  UNL1        0.1538
     18 N         144.8834  127.8280  159.5977 N.ar    1  UNL1       -0.2473
     19 C         144.2780  129.0912  159.0612 C.ar    1  UNL1        0.0967
     20 C         144.3919  129.0610  157.5658 C.ar    1  UNL1        0.0411
     21 C         145.0678  127.7793  157.1781 C.ar    1  UNL1        0.1217
     22 N         145.3716  127.0172  158.4339 N.ar    1  UNL1       -0.1676
     23 N         142.6361  138.8672  157.9055 N.pl3   1  UNL1       -0.2052
     24 H         142.8260  139.7896  157.6183 H       1  UNL1        0.1748
     25 S         142.4372  138.5606  159.3602 S.O2    1  UNL1        0.1132
     26 O         140.9733  138.3443  159.1144 O.2     1  UNL1       -0.1379
     27 O         143.9010  138.7769  159.6060 O.2     1  UNL1       -0.1379
     28 N         142.2383  138.2539  160.8150 N.3     1  UNL1       -0.1371
     29 C         141.0501  137.9789  161.6882 C.3     1  UNL1        0.1339
     30 C         141.9569  137.8202  162.8724 C.3     1  UNL1        0.1963
     31 F         141.7581  137.5136  164.3272 F       1  UNL1       -0.2342
     32 C         143.1452  138.0953  161.9993 C.3     1  UNL1        0.1339
@<TRIPOS>BOND
     1    17    18    1
     2    18    19   ar
     3    19    20   ar
     4    20     1    1
     5     1     2   ar
     6     2     3   ar
     7     3     4   ar
     8     4     5   ar
     9     5     6   ar
    10     6     7   ar
    11     7     8   ar
    12     8     9   ar
    13     9    10   ar
    14    10    23    1
    15    23    25    1
    16    25    26    2
    17    25    27    2
    18    25    28    1
    19    28    29    1
    20    29    30    1
    21    30    31    1
    22    30    32    1
    23    10    11   ar
    24    11    12   ar
    25    12    13   ar
    26    13    14    2
    27    13    15   ar
    28    15    16   ar
    29    20    21   ar
    30    21    22   ar
    31    22    18   ar
    32    16     1   ar
    33    15     4   ar
    34    12     7   ar
    35    32    28    1
    36    23    24    1
@<TRIPOS>MOLECULE
*****
 32 36 0 0 0
SMALL
GASTEIGER

@<TRIPOS>ATOM
      1 C         142.8699  137.8987  157.1466 C.ar    1  UNL1        0.0223
      2 C         143.4127  138.9647  156.2416 C.ar    1  UNL1        0.0989
      3 N         143.8976  140.2620  156.8176 N.ar    1  UNL1       -0.2437
      4 C         143.8397  140.4933  158.2985 C.ar    1  UNL1        0.0844
      5 C         144.3709  141.8480  158.6627 C.ar    1  UNL1        0.0192
      6 C         144.4905  142.4713  160.0219 C.ar    1  UNL1        0.0016
      7 C         144.1084  141.8938  161.3524 C.ar    1  UNL1        0.0032
      8 C         144.3949  142.8536  162.4691 C.ar    1  UNL1        0.0014
      9 C         144.0853  142.4700  163.8857 C.ar    1  UNL1        0.0159
     10 C         143.4893  141.1266  164.1858 C.ar    1  UNL1        0.0659
     11 C         143.2029  140.1668  163.0693 C.ar    1  UNL1        0.0191
     12 C         143.5124  140.5504  161.6525 C.ar    1  UNL1        0.0403
     13 C         143.1513  139.4527  160.6961 C.ar    1  UNL1        0.1970
     14 O         142.5672  138.2171  161.3142 O.2     1  UNL1       -0.2865
     15 C         143.2969  139.4273  159.2035 C.ar    1  UNL1        0.0566
     16 C         142.8120  138.1300  158.6275 C.ar    1  UNL1        0.0063
     17 C         142.3649  132.7495  156.0918 C.3     1  UNL1        0.1538
     18 N         142.1529  134.2345  156.0858 N.ar    1  UNL1       -0.2473
     19 C         142.9317  135.2395  156.8816 C.ar    1  UNL1        0.0967
     20 C         142.3850  136.6013  156.5706 C.ar    1  UNL1        0.0411
     21 C         141.2682  136.4379  155.5827 C.ar    1  UNL1        0.1217
     22 N         141.1247  134.9751  155.2830 N.ar    1  UNL1       -0.1676
     23 N         143.1797  140.7429  165.6025 N.pl3   1  UNL1       -0.2052
     24 H         143.8752  140.8157  166.2955 H       1  UNL1        0.1748
     25 S         141.8103  140.2485  165.9634 S.O2    1  UNL1        0.1132
     26 O         141.2466  141.6119  165.6919 O.2     1  UNL1       -0.1379
     27 O         142.3739  138.8852  166.2348 O.2     1  UNL1       -0.1379
     28 N         140.4408  139.7541  166.3242 N.3     1  UNL1       -0.1371
     29 C         139.4169  138.8848  165.6565 C.3     1  UNL1        0.1339
     30 C         138.5041  139.0549  166.8345 C.3     1  UNL1        0.1963
     31 F         137.1347  138.5606  167.1954 F       1  UNL1       -0.2342
     32 C         139.5280  139.9243  167.5023 C.3     1  UNL1        0.1339
@<TRIPOS>BOND
     1    17    18    1
     2    18    19   ar
     3    19    20   ar
     4    20     1    1
     5     1     2   ar
     6     2     3   ar
     7     3     4   ar
     8     4     5   ar
     9     5     6   ar
    10     6     7   ar
    11     7     8   ar
    12     8     9   ar
    13     9    10   ar
    14    10    23    1
    15    23    25    1
    16    25    26    2
    17    25    27    2
    18    25    28    1
    19    28    29    1
    20    29    30    1
    21    30    31    1
    22    30    32    1
    23    10    11   ar
    24    11    12   ar
    25    12    13   ar
    26    13    14    2
    27    13    15   ar
    28    15    16   ar
    29    20    21   ar
    30    21    22   ar
    31    22    18   ar
    32    16     1   ar
    33    15     4   ar
    34    12     7   ar
    35    32    28    1
    36    23    24    1
