@<TRIPOS>MOLECULE
*****
 32 35 0 0 0
SMALL
GASTEIGER

@<TRIPOS>ATOM
      1 C         142.8679  137.4732  157.6542 C.ar    1  UNL1        0.1743
      2 N         142.5677  136.0144  157.4761 N.ar    1  UNL1       -0.2173
      3 C         142.7085  135.3791  156.1247 C.ar    1  UNL1        0.1834
      4 N         143.1497  136.2027  154.9511 N.ar    1  UNL1       -0.1885
      5 C         143.4499  137.6615  155.1291 C.ar    1  UNL1        0.2596
      6 O         143.8911  138.4851  153.9556 O.3     1  UNL1       -0.4898
      7 C         143.3091  138.2968  156.4807 C.ar    1  UNL1        0.2098
      8 O         143.6093  139.7556  156.6587 O.3     1  UNL1       -0.5007
      9 H         143.9791  138.0883  153.1114 H       1  UNL1        0.2938
     10 H         143.8849  140.2700  155.9256 H       1  UNL1        0.2924
     11 C         142.4082  133.9203  155.9467 C.ar    1  UNL1        0.1170
     12 N         141.2493  133.4914  155.0964 N.ar    1  UNL1       -0.2407
     13 C         140.9490  132.0326  154.9184 C.ar    1  UNL1        0.0989
     14 C         141.8077  131.0027  155.5906 C.ar    1  UNL1        0.0207
     15 C         142.9667  131.4315  156.4409 C.ar    1  UNL1        0.0031
     16 C         143.8254  130.4016  157.1131 C.ar    1  UNL1        0.0001
     17 C         144.9843  130.8305  157.9633 C.ar    1  UNL1        0.0000
     18 C         145.2845  132.2893  158.1413 C.ar    1  UNL1        0.0000
     19 C         144.4259  133.3192  157.4691 C.ar    1  UNL1        0.0016
     20 C         143.2670  132.8904  156.6189 C.ar    1  UNL1        0.0207
     21 N         142.9716  137.2984  160.2443 N.am    1  UNL1       -0.3012
     22 C         142.7270  138.1085  159.0057 C.2     1  UNL1        0.2668
     23 O         142.3416  139.5537  159.1187 O.2     1  UNL1       -0.2684
     24 H         143.2246  136.3499  160.1701 H       1  UNL1        0.1497
     25 C         143.9910  138.6618  162.2069 C.3     1  UNL1        0.0213
     26 C         142.8307  137.9336  161.5958 C.3     1  UNL1        0.0719
     27 C         141.5296  137.8406  162.3362 C.3     1  UNL1        0.0180
     28 C         141.5231  137.5485  163.8076 C.3     1  UNL1        0.0016
     29 C         140.2219  137.4555  164.5480 C.3     1  UNL1        0.0001
     30 C         138.9272  137.6546  163.8172 C.3     1  UNL1        0.0000
     31 C         138.9336  137.9466  162.3459 C.3     1  UNL1        0.0001
     32 C         140.2349  138.0396  161.6054 C.3     1  UNL1        0.0016
@<TRIPOS>BOND
     1    26    25    1
     2    26    21    1
     3    21    22   am
     4    22    23    2
     5    22     1    1
     6     1     2   ar
     7     2     3   ar
     8     3    11    1
     9    11    12   ar
    10    12    13   ar
    11    13    14   ar
    12    14    15   ar
    13    15    16   ar
    14    16    17   ar
    15    17    18   ar
    16    18    19   ar
    17    19    20   ar
    18     3     4   ar
    19     4     5   ar
    20     5     6    1
    21     5     7   ar
    22     7     8    1
    23    26    27    1
    24    27    28    1
    25    28    29    1
    26    29    30    1
    27    30    31    1
    28    31    32    1
    29     7     1   ar
    30    32    27    1
    31    20    11   ar
    32    20    15   ar
    33    21    24    1
    34     6     9    1
    35     8    10    1
@<TRIPOS>MOLECULE
*****
 32 35 0 0 0
SMALL
GASTEIGER

@<TRIPOS>ATOM
      1 C         141.2880  145.0120  160.0796 C.ar    1  UNL1        0.1743
      2 N         142.2933  144.0090  160.5628 N.ar    1  UNL1       -0.2173
      3 C         142.2804  143.5644  161.9953 C.ar    1  UNL1        0.1834
      4 N         141.2622  144.1229  162.9448 N.ar    1  UNL1       -0.1885
      5 C         140.2569  145.1259  162.4617 C.ar    1  UNL1        0.2596
      6 O         139.2387  145.6844  163.4110 O.3     1  UNL1       -0.4898
      7 C         140.2698  145.5705  161.0290 C.ar    1  UNL1        0.2098
      8 O         139.2646  146.5735  160.5459 O.3     1  UNL1       -0.5007
      9 H         139.2307  145.4068  164.3059 H       1  UNL1        0.2938
     10 H         138.6286  146.9223  161.1390 H       1  UNL1        0.2924
     11 C         143.2856  142.5614  162.4785 C.ar    1  UNL1        0.1170
     12 N         144.6111  143.0231  163.0076 N.ar    1  UNL1       -0.2407
     13 C         145.6163  142.0201  163.4907 C.ar    1  UNL1        0.0989
     14 C         145.2961  140.5554  163.4448 C.ar    1  UNL1        0.0207
     15 C         143.9706  140.0937  162.9156 C.ar    1  UNL1        0.0031
     16 C         143.6504  138.6290  162.8697 C.ar    1  UNL1        0.0001
     17 C         142.3250  138.1673  162.3405 C.ar    1  UNL1        0.0000
     18 C         141.3197  139.1703  161.8574 C.ar    1  UNL1        0.0000
     19 C         141.6399  140.6350  161.9034 C.ar    1  UNL1        0.0016
     20 C         142.9654  141.0967  162.4325 C.ar    1  UNL1        0.0207
     21 N         140.0720  145.2984  157.8016 N.am    1  UNL1       -0.3012
     22 C         141.3010  145.4565  158.6470 C.2     1  UNL1        0.2668
     23 O         142.5428  146.0590  158.0599 O.2     1  UNL1       -0.2684
     24 H         139.2570  144.9029  158.1870 H       1  UNL1        0.1497
     25 C         140.5191  144.7925  155.2928 C.3     1  UNL1        0.0213
     26 C         140.0849  145.7429  156.3691 C.3     1  UNL1        0.0719
     27 C         139.6637  147.1377  156.0128 C.3     1  UNL1        0.0180
     28 C         138.8588  147.9493  156.9841 C.3     1  UNL1        0.0016
     29 C         138.4375  149.3441  156.6279 C.3     1  UNL1        0.0001
     30 C         138.8212  149.9274  155.3003 C.3     1  UNL1        0.0000
     31 C         139.6261  149.1159  154.3289 C.3     1  UNL1        0.0001
     32 C         140.0474  147.7210  154.6852 C.3     1  UNL1        0.0016
@<TRIPOS>BOND
     1    26    25    1
     2    26    21    1
     3    21    22   am
     4    22    23    2
     5    22     1    1
     6     1     2   ar
     7     2     3   ar
     8     3    11    1
     9    11    12   ar
    10    12    13   ar
    11    13    14   ar
    12    14    15   ar
    13    15    16   ar
    14    16    17   ar
    15    17    18   ar
    16    18    19   ar
    17    19    20   ar
    18     3     4   ar
    19     4     5   ar
    20     5     6    1
    21     5     7   ar
    22     7     8    1
    23    26    27    1
    24    27    28    1
    25    28    29    1
    26    29    30    1
    27    30    31    1
    28    31    32    1
    29     7     1   ar
    30    32    27    1
    31    20    11   ar
    32    20    15   ar
    33    21    24    1
    34     6     9    1
    35     8    10    1
@<TRIPOS>MOLECULE
*****
 32 35 0 0 0
SMALL
GASTEIGER

@<TRIPOS>ATOM
      1 C         142.9389  136.9659  157.9177 C.ar    1  UNL1        0.1743
      2 N         143.1584  135.4884  158.0550 N.ar    1  UNL1       -0.2173
      3 C         143.4223  134.6530  156.8374 C.ar    1  UNL1        0.1834
      4 N         143.4667  135.2952  155.4825 N.ar    1  UNL1       -0.1885
      5 C         143.2472  136.7727  155.3452 C.ar    1  UNL1        0.2596
      6 O         143.2916  137.4149  153.9904 O.3     1  UNL1       -0.4898
      7 C         142.9833  137.6080  156.5629 C.ar    1  UNL1        0.2098
      8 O         142.7639  139.0855  156.4257 O.3     1  UNL1       -0.5007
      9 H         143.4564  136.8931  153.2298 H       1  UNL1        0.2938
     10 H         142.7916  139.4867  155.5794 H       1  UNL1        0.2924
     11 C         143.6417  133.1755  156.9746 C.ar    1  UNL1        0.1170
     12 N         144.7700  132.6600  157.8180 N.ar    1  UNL1       -0.2407
     13 C         144.9894  131.1825  157.9552 C.ar    1  UNL1        0.0989
     14 C         144.0807  130.2205  157.2491 C.ar    1  UNL1        0.0207
     15 C         142.9524  130.7360  156.4057 C.ar    1  UNL1        0.0031
     16 C         142.0436  129.7740  155.6995 C.ar    1  UNL1        0.0001
     17 C         140.9154  130.2895  154.8562 C.ar    1  UNL1        0.0000
     18 C         140.6959  131.7670  154.7189 C.ar    1  UNL1        0.0000
     19 C         141.6047  132.7290  155.4251 C.ar    1  UNL1        0.0016
     20 C         142.7329  132.2135  156.2684 C.ar    1  UNL1        0.0207
     21 N         143.0575  137.2901  160.4928 N.am    1  UNL1       -0.3012
     22 C         142.6751  137.8012  159.1354 C.2     1  UNL1        0.2668
     23 O         142.0288  139.1475  158.9957 O.2     1  UNL1       -0.2684
     24 H         143.4817  136.4064  160.5845 H       1  UNL1        0.1497
     25 C         143.8020  139.1431  162.1547 C.3     1  UNL1        0.0213
     26 C         142.7937  138.1253  161.7105 C.3     1  UNL1        0.0719
     27 C         141.5215  137.9427  162.4839 C.3     1  UNL1        0.0180
     28 C         141.5722  137.6828  163.9604 C.3     1  UNL1        0.0016
     29 C         140.3000  137.5002  164.7338 C.3     1  UNL1        0.0001
     30 C         138.9772  137.5775  164.0308 C.3     1  UNL1        0.0000
     31 C         138.9265  137.8374  162.5544 C.3     1  UNL1        0.0001
     32 C         140.1987  138.0200  161.7809 C.3     1  UNL1        0.0016
@<TRIPOS>BOND
     1    26    25    1
     2    26    21    1
     3    21    22   am
     4    22    23    2
     5    22     1    1
     6     1     2   ar
     7     2     3   ar
     8     3    11    1
     9    11    12   ar
    10    12    13   ar
    11    13    14   ar
    12    14    15   ar
    13    15    16   ar
    14    16    17   ar
    15    17    18   ar
    16    18    19   ar
    17    19    20   ar
    18     3     4   ar
    19     4     5   ar
    20     5     6    1
    21     5     7   ar
    22     7     8    1
    23    26    27    1
    24    27    28    1
    25    28    29    1
    26    29    30    1
    27    30    31    1
    28    31    32    1
    29     7     1   ar
    30    32    27    1
    31    20    11   ar
    32    20    15   ar
    33    21    24    1
    34     6     9    1
    35     8    10    1
@<TRIPOS>MOLECULE
*****
 32 35 0 0 0
SMALL
GASTEIGER

@<TRIPOS>ATOM
      1 C         142.9333  136.9460  158.1303 C.ar    1  UNL1        0.1743
      2 N         143.1492  135.4641  158.2157 N.ar    1  UNL1       -0.2173
      3 C         143.4968  134.6845  156.9824 C.ar    1  UNL1        0.1834
      4 N         143.6285  135.3867  155.6634 N.ar    1  UNL1       -0.1885
      5 C         143.4126  136.8687  155.5779 C.ar    1  UNL1        0.2596
      6 O         143.5442  137.5709  154.2591 O.3     1  UNL1       -0.4898
      7 C         143.0649  137.6483  156.8114 C.ar    1  UNL1        0.2098
      8 O         142.8490  139.1302  156.7259 O.3     1  UNL1       -0.5007
      9 H         143.7614  137.0839  153.4886 H       1  UNL1        0.2938
     10 H         142.9312  139.5689  155.9021 H       1  UNL1        0.2924
     11 C         143.7128  133.2026  157.0678 C.ar    1  UNL1        0.1170
     12 N         144.8416  132.6553  157.8901 N.ar    1  UNL1       -0.2407
     13 C         145.0576  131.1734  157.9756 C.ar    1  UNL1        0.0989
     14 C         144.1447  130.2387  157.2388 C.ar    1  UNL1        0.0207
     15 C         143.0157  130.7860  156.4165 C.ar    1  UNL1        0.0031
     16 C         142.1028  129.8513  155.6797 C.ar    1  UNL1        0.0001
     17 C         140.9739  130.3985  154.8575 C.ar    1  UNL1        0.0000
     18 C         140.7580  131.8804  154.7720 C.ar    1  UNL1        0.0000
     19 C         141.6709  132.8151  155.5088 C.ar    1  UNL1        0.0016
     20 C         142.7998  132.2679  156.3310 C.ar    1  UNL1        0.0207
     21 N         143.2366  137.3884  160.6724 N.am    1  UNL1       -0.3012
     22 C         142.5857  137.7257  159.3638 C.2     1  UNL1        0.2668
     23 O         141.5872  138.8425  159.2885 O.2     1  UNL1       -0.2684
     24 H         143.8919  136.6554  160.7218 H       1  UNL1        0.1497
     25 C         141.6751  137.8018  162.7073 C.3     1  UNL1        0.0213
     26 C         142.8890  138.1680  161.9058 C.3     1  UNL1        0.0719
     27 C         143.7553  139.3138  162.3378 C.3     1  UNL1        0.0180
     28 C         143.9566  140.4874  161.4255 C.3     1  UNL1        0.0016
     29 C         144.8229  141.6332  161.8575 C.3     1  UNL1        0.0001
     30 C         145.4880  141.6055  163.2017 C.3     1  UNL1        0.0000
     31 C         145.2868  140.4319  164.1139 C.3     1  UNL1        0.0001
     32 C         144.4205  139.2860  163.6820 C.3     1  UNL1        0.0016
@<TRIPOS>BOND
     1    26    25    1
     2    26    21    1
     3    21    22   am
     4    22    23    2
     5    22     1    1
     6     1     2   ar
     7     2     3   ar
     8     3    11    1
     9    11    12   ar
    10    12    13   ar
    11    13    14   ar
    12    14    15   ar
    13    15    16   ar
    14    16    17   ar
    15    17    18   ar
    16    18    19   ar
    17    19    20   ar
    18     3     4   ar
    19     4     5   ar
    20     5     6    1
    21     5     7   ar
    22     7     8    1
    23    26    27    1
    24    27    28    1
    25    28    29    1
    26    29    30    1
    27    30    31    1
    28    31    32    1
    29     7     1   ar
    30    32    27    1
    31    20    11   ar
    32    20    15   ar
    33    21    24    1
    34     6     9    1
    35     8    10    1
@<TRIPOS>MOLECULE
*****
 32 35 0 0 0
SMALL
GASTEIGER

@<TRIPOS>ATOM
      1 C         141.9870  137.6936  157.8456 C.ar    1  UNL1        0.1743
      2 N         142.7834  138.1603  159.0279 N.ar    1  UNL1       -0.2173
      3 C         142.1635  139.0871  160.0312 C.ar    1  UNL1        0.1834
      4 N         140.7470  139.5472  159.8523 N.ar    1  UNL1       -0.1885
      5 C         139.9506  139.0805  158.6700 C.ar    1  UNL1        0.2596
      6 O         138.5342  139.5406  158.4911 O.3     1  UNL1       -0.4898
      7 C         140.5706  138.1537  157.6667 C.ar    1  UNL1        0.2098
      8 O         139.7741  137.6870  156.4844 O.3     1  UNL1       -0.5007
      9 H         138.1469  140.1196  159.1178 H       1  UNL1        0.2938
     10 H         138.8893  137.9744  156.3726 H       1  UNL1        0.2924
     11 C         142.9600  139.5538  161.2135 C.ar    1  UNL1        0.1170
     12 N         144.0247  140.5954  161.0367 N.ar    1  UNL1       -0.2407
     13 C         144.8211  141.0621  162.2190 C.ar    1  UNL1        0.0989
     14 C         144.5529  140.4872  163.5781 C.ar    1  UNL1        0.0207
     15 C         143.4882  139.4454  163.7551 C.ar    1  UNL1        0.0031
     16 C         143.2200  138.8705  165.1143 C.ar    1  UNL1        0.0001
     17 C         142.1553  137.8288  165.2911 C.ar    1  UNL1        0.0000
     18 C         141.3588  137.3621  164.1088 C.ar    1  UNL1        0.0000
     19 C         141.6271  137.9371  162.7497 C.ar    1  UNL1        0.0016
     20 C         142.6917  138.9787  162.5728 C.ar    1  UNL1        0.0207
     21 N         141.8817  135.5229  156.4219 N.am    1  UNL1       -0.3012
     22 C         142.6070  136.7668  156.8423 C.2     1  UNL1        0.2668
     23 O         143.9522  137.0839  156.2593 O.2     1  UNL1       -0.2684
     24 H         140.9988  135.3148  156.8045 H       1  UNL1        0.1497
     25 C         142.2711  134.8150  153.9526 C.3     1  UNL1        0.0213
     26 C         142.5016  134.5961  155.4186 C.3     1  UNL1        0.0719
     27 C         143.3521  133.4504  155.8812 C.3     1  UNL1        0.0180
     28 C         143.5339  132.2485  155.0022 C.3     1  UNL1        0.0016
     29 C         144.3843  131.1028  155.4649 C.3     1  UNL1        0.0001
     30 C         145.0530  131.1589  156.8064 C.3     1  UNL1        0.0000
     31 C         144.8712  132.3607  157.6854 C.3     1  UNL1        0.0001
     32 C         144.0207  133.5065  157.2228 C.3     1  UNL1        0.0016
@<TRIPOS>BOND
     1    26    25    1
     2    26    21    1
     3    21    22   am
     4    22    23    2
     5    22     1    1
     6     1     2   ar
     7     2     3   ar
     8     3    11    1
     9    11    12   ar
    10    12    13   ar
    11    13    14   ar
    12    14    15   ar
    13    15    16   ar
    14    16    17   ar
    15    17    18   ar
    16    18    19   ar
    17    19    20   ar
    18     3     4   ar
    19     4     5   ar
    20     5     6    1
    21     5     7   ar
    22     7     8    1
    23    26    27    1
    24    27    28    1
    25    28    29    1
    26    29    30    1
    27    30    31    1
    28    31    32    1
    29     7     1   ar
    30    32    27    1
    31    20    11   ar
    32    20    15   ar
    33    21    24    1
    34     6     9    1
    35     8    10    1
@<TRIPOS>MOLECULE
*****
 32 35 0 0 0
SMALL
GASTEIGER

@<TRIPOS>ATOM
      1 C         137.8666  141.3372  157.4668 C.ar    1  UNL1        0.1743
      2 N         138.0260  142.4416  158.4694 N.ar    1  UNL1       -0.2173
      3 C         139.1486  142.3961  159.4631 C.ar    1  UNL1        0.1834
      4 N         140.1119  141.2463  159.4544 N.ar    1  UNL1       -0.1885
      5 C         139.9525  140.1419  158.4519 C.ar    1  UNL1        0.2596
      6 O         140.9157  138.9921  158.4432 O.3     1  UNL1       -0.4898
      7 C         138.8298  140.1874  157.4581 C.ar    1  UNL1        0.2098
      8 O         138.6705  139.0831  156.4556 O.3     1  UNL1       -0.5007
      9 H         141.6170  138.9637  159.0640 H       1  UNL1        0.2938
     10 H         139.2722  138.3649  156.4501 H       1  UNL1        0.2924
     11 C         139.3080  143.5004  160.4657 C.ar    1  UNL1        0.1170
     12 N         140.0237  144.7622  160.0841 N.ar    1  UNL1       -0.2407
     13 C         140.1831  145.8666  161.0866 C.ar    1  UNL1        0.0989
     14 C         139.6268  145.7091  162.4707 C.ar    1  UNL1        0.0207
     15 C         138.9110  144.4473  162.8523 C.ar    1  UNL1        0.0031
     16 C         138.3547  144.2898  164.2364 C.ar    1  UNL1        0.0001
     17 C         137.6390  143.0280  164.6179 C.ar    1  UNL1        0.0000
     18 C         137.4796  141.9237  163.6154 C.ar    1  UNL1        0.0000
     19 C         138.0359  142.0812  162.2313 C.ar    1  UNL1        0.0016
     20 C         138.7516  143.3429  161.8498 C.ar    1  UNL1        0.0207
     21 N         135.9317  140.1511  156.2021 N.am    1  UNL1       -0.3012
     22 C         136.7440  141.3828  156.4730 C.2     1  UNL1        0.2668
     23 O         136.4336  142.6599  155.7501 O.2     1  UNL1       -0.2684
     24 H         136.1355  139.3129  156.6766 H       1  UNL1        0.1497
     25 C         135.1089  140.3017  153.7424 C.3     1  UNL1        0.0213
     26 C         134.8091  140.1966  155.2084 C.3     1  UNL1        0.0719
     27 C         133.3867  140.1369  155.6806 C.3     1  UNL1        0.0180
     28 C         132.9182  138.9747  156.5052 C.3     1  UNL1        0.0016
     29 C         131.4958  138.9150  156.9774 C.3     1  UNL1        0.0001
     30 C         130.5417  140.0176  156.6251 C.3     1  UNL1        0.0000
     31 C         131.0100  141.1798  155.8005 C.3     1  UNL1        0.0001
     32 C         132.4326  141.2395  155.3283 C.3     1  UNL1        0.0016
@<TRIPOS>BOND
     1    26    25    1
     2    26    21    1
     3    21    22   am
     4    22    23    2
     5    22     1    1
     6     1     2   ar
     7     2     3   ar
     8     3    11    1
     9    11    12   ar
    10    12    13   ar
    11    13    14   ar
    12    14    15   ar
    13    15    16   ar
    14    16    17   ar
    15    17    18   ar
    16    18    19   ar
    17    19    20   ar
    18     3     4   ar
    19     4     5   ar
    20     5     6    1
    21     5     7   ar
    22     7     8    1
    23    26    27    1
    24    27    28    1
    25    28    29    1
    26    29    30    1
    27    30    31    1
    28    31    32    1
    29     7     1   ar
    30    32    27    1
    31    20    11   ar
    32    20    15   ar
    33    21    24    1
    34     6     9    1
    35     8    10    1
@<TRIPOS>MOLECULE
*****
 32 35 0 0 0
SMALL
GASTEIGER

@<TRIPOS>ATOM
      1 C         140.7596  143.4826  162.0478 C.ar    1  UNL1        0.1743
      2 N         140.6376  142.7504  163.3513 N.ar    1  UNL1       -0.2173
      3 C         141.6380  142.9907  164.4429 C.ar    1  UNL1        0.1834
      4 N         142.7603  143.9631  164.2309 N.ar    1  UNL1       -0.1885
      5 C         142.8822  144.6952  162.9274 C.ar    1  UNL1        0.2596
      6 O         144.0045  145.6676  162.7155 O.3     1  UNL1       -0.4898
      7 C         141.8818  144.4549  161.8358 C.ar    1  UNL1        0.2098
      8 O         142.0037  145.1870  160.5323 O.3     1  UNL1       -0.5007
      9 H         144.6294  145.8177  163.3973 H       1  UNL1        0.2938
     10 H         142.7048  145.7945  160.3999 H       1  UNL1        0.2924
     11 C         141.5161  142.2586  165.7464 C.ar    1  UNL1        0.1170
     12 N         140.6571  142.8163  166.8423 N.ar    1  UNL1       -0.2407
     13 C         140.5352  142.0842  168.1459 C.ar    1  UNL1        0.0989
     14 C         141.2722  140.7944  168.3534 C.ar    1  UNL1        0.0207
     15 C         142.1312  140.2366  167.2574 C.ar    1  UNL1        0.0031
     16 C         142.8682  138.9468  167.4650 C.ar    1  UNL1        0.0001
     17 C         143.7272  138.3891  166.3691 C.ar    1  UNL1        0.0000
     18 C         143.8491  139.1212  165.0655 C.ar    1  UNL1        0.0000
     19 C         143.1121  140.4110  164.8580 C.ar    1  UNL1        0.0016
     20 C         142.2531  140.9687  165.9539 C.ar    1  UNL1        0.0207
     21 N         140.2175  142.7611  159.6115 N.am    1  UNL1       -0.3012
     22 C         139.7591  143.2422  160.9562 C.2     1  UNL1        0.2668
     23 O         138.3004  143.4831  161.2094 O.2     1  UNL1       -0.2684
     24 H         141.1749  142.6030  159.4453 H       1  UNL1        0.1497
     25 C         138.4023  141.2614  158.5133 C.3     1  UNL1        0.0213
     26 C         139.2172  142.5208  158.5199 C.3     1  UNL1        0.0719
     27 C         139.0317  143.5398  157.4350 C.3     1  UNL1        0.0180
     28 C         138.0050  143.3170  156.3643 C.3     1  UNL1        0.0016
     29 C         137.8195  144.3360  155.2793 C.3     1  UNL1        0.0001
     30 C         138.6607  145.5779  155.2650 C.3     1  UNL1        0.0000
     31 C         139.6874  145.8007  156.3357 C.3     1  UNL1        0.0001
     32 C         139.8729  144.7816  157.4207 C.3     1  UNL1        0.0016
@<TRIPOS>BOND
     1    26    25    1
     2    26    21    1
     3    21    22   am
     4    22    23    2
     5    22     1    1
     6     1     2   ar
     7     2     3   ar
     8     3    11    1
     9    11    12   ar
    10    12    13   ar
    11    13    14   ar
    12    14    15   ar
    13    15    16   ar
    14    16    17   ar
    15    17    18   ar
    16    18    19   ar
    17    19    20   ar
    18     3     4   ar
    19     4     5   ar
    20     5     6    1
    21     5     7   ar
    22     7     8    1
    23    26    27    1
    24    27    28    1
    25    28    29    1
    26    29    30    1
    27    30    31    1
    28    31    32    1
    29     7     1   ar
    30    32    27    1
    31    20    11   ar
    32    20    15   ar
    33    21    24    1
    34     6     9    1
    35     8    10    1
@<TRIPOS>MOLECULE
*****
 32 35 0 0 0
SMALL
GASTEIGER

@<TRIPOS>ATOM
      1 C         142.6629  138.1728  157.8738 C.ar    1  UNL1        0.1743
      2 N         142.2403  137.7649  159.2541 N.ar    1  UNL1       -0.2173
      3 C         141.8365  138.8078  160.2537 C.ar    1  UNL1        0.1834
      4 N         141.8552  140.2586  159.8731 N.ar    1  UNL1       -0.1885
      5 C         142.2778  140.6665  158.4928 C.ar    1  UNL1        0.2596
      6 O         142.2966  142.1172  158.1122 O.3     1  UNL1       -0.4898
      7 C         142.6816  139.6235  157.4932 C.ar    1  UNL1        0.2098
      8 O         143.1042  140.0314  156.1129 O.3     1  UNL1       -0.5007
      9 H         142.0443  142.7687  158.7366 H       1  UNL1        0.2938
     10 H         143.1159  140.9376  155.8752 H       1  UNL1        0.2924
     11 C         141.4139  138.3999  161.6339 C.ar    1  UNL1        0.1170
     12 N         140.0633  137.7857  161.8540 N.ar    1  UNL1       -0.2407
     13 C         139.6408  137.3778  163.2342 C.ar    1  UNL1        0.0989
     14 C         140.5688  137.5842  164.3944 C.ar    1  UNL1        0.0207
     15 C         141.9195  138.1985  164.1744 C.ar    1  UNL1        0.0031
     16 C         142.8476  138.4049  165.3346 C.ar    1  UNL1        0.0001
     17 C         144.1982  139.0192  165.1145 C.ar    1  UNL1        0.0000
     18 C         144.6207  139.4271  163.7343 C.ar    1  UNL1        0.0000
     19 C         143.6927  139.2207  162.5741 C.ar    1  UNL1        0.0016
     20 C         142.3421  138.6064  162.7941 C.ar    1  UNL1        0.0207
     21 N         142.2229  135.9038  156.6871 N.am    1  UNL1       -0.3012
     22 C         143.0667  137.1298  156.8742 C.2     1  UNL1        0.2668
     23 O         144.3142  137.3128  156.0617 O.2     1  UNL1       -0.2684
     24 H         141.4041  135.7837  157.2203 H       1  UNL1        0.1497
     25 C         142.1996  134.9895  154.2553 C.3     1  UNL1        0.0213
     26 C         142.6267  134.8609  155.6875 C.3     1  UNL1        0.0719
     27 C         143.4575  133.6893  156.1201 C.3     1  UNL1        0.0180
     28 C         143.6541  132.5262  155.1934 C.3     1  UNL1        0.0016
     29 C         144.4849  131.3547  155.6260 C.3     1  UNL1        0.0001
     30 C         145.1191  131.3461  156.9853 C.3     1  UNL1        0.0000
     31 C         144.9225  132.5091  157.9119 C.3     1  UNL1        0.0001
     32 C         144.0917  133.6807  157.4794 C.3     1  UNL1        0.0016
@<TRIPOS>BOND
     1    26    25    1
     2    26    21    1
     3    21    22   am
     4    22    23    2
     5    22     1    1
     6     1     2   ar
     7     2     3   ar
     8     3    11    1
     9    11    12   ar
    10    12    13   ar
    11    13    14   ar
    12    14    15   ar
    13    15    16   ar
    14    16    17   ar
    15    17    18   ar
    16    18    19   ar
    17    19    20   ar
    18     3     4   ar
    19     4     5   ar
    20     5     6    1
    21     5     7   ar
    22     7     8    1
    23    26    27    1
    24    27    28    1
    25    28    29    1
    26    29    30    1
    27    30    31    1
    28    31    32    1
    29     7     1   ar
    30    32    27    1
    31    20    11   ar
    32    20    15   ar
    33    21    24    1
    34     6     9    1
    35     8    10    1
@<TRIPOS>MOLECULE
*****
 32 35 0 0 0
SMALL
GASTEIGER

@<TRIPOS>ATOM
      1 C         142.5471  142.5368  163.4050 C.ar    1  UNL1        0.1743
      2 N         141.7781  142.3422  164.6781 N.ar    1  UNL1       -0.2173
      3 C         142.1671  141.2500  165.6297 C.ar    1  UNL1        0.1834
      4 N         143.3250  140.3522  165.3083 N.ar    1  UNL1       -0.1885
      5 C         144.0940  140.5468  164.0351 C.ar    1  UNL1        0.2596
      6 O         145.2519  139.6491  163.7136 O.3     1  UNL1       -0.4898
      7 C         143.7050  141.6391  163.0835 C.ar    1  UNL1        0.2098
      8 O         144.4739  141.8337  161.8103 O.3     1  UNL1       -0.5007
      9 H         145.4948  138.9668  164.3081 H       1  UNL1        0.2938
     10 H         145.1972  141.2729  161.6095 H       1  UNL1        0.2924
     11 C         141.3981  141.0554  166.9029 C.ar    1  UNL1        0.1170
     12 N         141.8705  141.7028  168.1708 N.ar    1  UNL1       -0.2407
     13 C         141.1016  141.5083  169.4439 C.ar    1  UNL1        0.0989
     14 C         139.8602  140.6663  169.4491 C.ar    1  UNL1        0.0207
     15 C         139.3878  140.0188  168.1812 C.ar    1  UNL1        0.0031
     16 C         138.1464  139.1768  168.1864 C.ar    1  UNL1        0.0001
     17 C         137.6740  138.5294  166.9185 C.ar    1  UNL1        0.0000
     18 C         138.4430  138.7239  165.6454 C.ar    1  UNL1        0.0000
     19 C         139.6843  139.5659  165.6401 C.ar    1  UNL1        0.0016
     20 C         140.1567  140.2134  166.9080 C.ar    1  UNL1        0.0207
     21 N         140.7149  143.8397  162.1028 N.am    1  UNL1       -0.3012
     22 C         142.1581  143.6291  162.4533 C.2     1  UNL1        0.2668
     23 O         143.2123  144.5108  161.8522 O.2     1  UNL1       -0.2684
     24 H         140.0230  143.2611  162.4974 H       1  UNL1        0.1497
     25 C         139.8181  146.2410  161.6791 C.3     1  UNL1        0.0213
     26 C         140.3259  144.9320  161.1512 C.3     1  UNL1        0.0719
     27 C         140.4446  144.7152  159.6717 C.3     1  UNL1        0.0180
     28 C         139.6488  143.6318  159.0062 C.3     1  UNL1        0.0016
     29 C         139.7675  143.4150  157.5267 C.3     1  UNL1        0.0001
     30 C         140.6821  144.2816  156.7127 C.3     1  UNL1        0.0000
     31 C         141.4779  145.3650  157.3782 C.3     1  UNL1        0.0001
     32 C         141.3592  145.5818  158.8578 C.3     1  UNL1        0.0016
@<TRIPOS>BOND
     1    26    25    1
     2    26    21    1
     3    21    22   am
     4    22    23    2
     5    22     1    1
     6     1     2   ar
     7     2     3   ar
     8     3    11    1
     9    11    12   ar
    10    12    13   ar
    11    13    14   ar
    12    14    15   ar
    13    15    16   ar
    14    16    17   ar
    15    17    18   ar
    16    18    19   ar
    17    19    20   ar
    18     3     4   ar
    19     4     5   ar
    20     5     6    1
    21     5     7   ar
    22     7     8    1
    23    26    27    1
    24    27    28    1
    25    28    29    1
    26    29    30    1
    27    30    31    1
    28    31    32    1
    29     7     1   ar
    30    32    27    1
    31    20    11   ar
    32    20    15   ar
    33    21    24    1
    34     6     9    1
    35     8    10    1
