@<TRIPOS>MOLECULE
*****
 32 37 0 0 0
SMALL
GASTEIGER

@<TRIPOS>ATOM
      1 C         142.4980  136.9163  157.3586 C.3     1  UNL1        0.1161
      2 C         143.2183  135.6110  157.1935 C.3     1  UNL1        0.0510
      3 C         142.7925  134.6495  156.1239 C.2     1  UNL1       -0.0044
      4 C         141.6463  134.9932  155.2194 C.2     1  UNL1        0.0689
      5 N         141.4538  133.8547  154.2620 N.2     1  UNL1       -0.2526
      6 C         142.4811  132.8073  154.5747 C.2     1  UNL1        0.0627
      7 C         142.7700  131.4698  153.9602 C.3     1  UNL1        0.0717
      8 C         143.8862  130.6235  154.4966 C.2     1  UNL1       -0.0198
      9 C         144.7136  131.1147  155.6473 C.2     1  UNL1       -0.0042
     10 C         144.4247  132.4522  156.2617 C.2     1  UNL1        0.0006
     11 C         143.3084  133.2985  155.7254 C.2     1  UNL1        0.0111
     12 C         140.9259  136.2986  155.3846 C.3     1  UNL1        0.0949
     13 N         141.3518  137.2601  156.4542 N.3     1  UNL1       -0.2887
     14 H         140.5401  137.4132  157.0526 H       1  UNL1        0.1239
     15 C         143.4099  138.8489  160.5988 C.ar    1  UNL1        0.0830
     16 C         143.7484  139.8661  159.5497 C.ar    1  UNL1        0.1176
     17 N         143.4480  139.2660  158.2082 N.ar    1  UNL1       -0.2282
     18 C         142.9239  137.8779  158.4283 C.ar    1  UNL1        0.1318
     19 N         142.9003  137.6201  159.9057 N.ar    1  UNL1       -0.3393
     20 H         142.6026  136.7901  160.3437 H       1  UNL1        0.1671
     21 CL        142.6937  138.3778  165.8090 Cl      1  UNL1       -0.0752
     22 C         143.2262  138.8123  164.4758 C.ar    1  UNL1        0.0870
     23 C         144.3326  139.7992  164.2473 C.ar    1  UNL1        0.0185
     24 C         144.5360  139.9330  162.7672 C.ar    1  UNL1        0.0094
     25 C         143.5555  139.0289  162.0809 C.ar    1  UNL1        0.0474
     26 S         142.7460  138.3363  163.1369 S.2     1  UNL1       -0.0740
     27 C         139.7797  136.6423  154.4801 C.3     1  UNL1        0.0252
     28 C         139.8698  136.3510  153.0115 C.3     1  UNL1        0.0339
     29 C         138.7235  136.6948  152.1071 C.3     1  UNL1        0.1422
     30 O         137.4872  137.3299  152.6713 O.3     1  UNL1       -0.3538
     31 C         137.3972  137.6212  154.1400 C.3     1  UNL1        0.1422
     32 C         138.5434  137.2774  155.0444 C.3     1  UNL1        0.0339
@<TRIPOS>BOND
     1    21    22    1
     2    22    23   ar
     3    23    24   ar
     4    24    25   ar
     5    25    15    1
     6    15    16   ar
     7    16    17   ar
     8    17    18   ar
     9     1    18    1
    10     1     2    1
    11     2     3    1
    12     3     4    2
    13     4     5    1
    14     5     6    2
    15     6     7    1
    16     7     8    1
    17     8     9    2
    18     9    10    1
    19    10    11    2
    20     4    12    1
    21    12    27    1
    22    27    28    1
    23    28    29    1
    24    29    30    1
    25    30    31    1
    26    31    32    1
    27    12    13    1
    28    18    19   ar
    29    25    26   ar
    30    26    22   ar
    31    19    15   ar
    32    13     1    1
    33    11     3    1
    34    32    27    1
    35    11     6    1
    36    13    14    1
    37    19    20    1
@<TRIPOS>MOLECULE
*****
 32 37 0 0 0
SMALL
GASTEIGER

@<TRIPOS>ATOM
      1 C         142.1008  140.0261  160.6761 C.3     1  UNL1        0.1161
      2 C         142.5541  139.3855  161.9544 C.3     1  UNL1        0.0510
      3 C         142.2337  140.0295  163.2707 C.2     1  UNL1       -0.0044
      4 C         141.4602  141.3140  163.3087 C.2     1  UNL1        0.0689
      5 N         141.2941  141.7128  164.7451 N.2     1  UNL1       -0.2526
      6 C         141.9650  140.6747  165.5949 C.2     1  UNL1        0.0627
      7 C         142.1222  140.5424  167.0808 C.3     1  UNL1        0.0717
      8 C         142.8600  139.3696  167.6554 C.2     1  UNL1       -0.0198
      9 C         143.4408  138.3293  166.7441 C.2     1  UNL1       -0.0042
     10 C         143.2836  138.4616  165.2583 C.2     1  UNL1        0.0006
     11 C         142.5458  139.6343  164.6837 C.2     1  UNL1        0.0111
     12 C         141.0069  141.9547  162.0303 C.3     1  UNL1        0.0949
     13 N         141.3273  141.3107  160.7140 N.3     1  UNL1       -0.2887
     14 H         141.8616  141.9922  160.1751 H       1  UNL1        0.1239
     15 C         142.5514  137.7709  157.5493 C.ar    1  UNL1        0.0830
     16 C         143.2769  139.0112  157.1190 C.ar    1  UNL1        0.1176
     17 N         143.1965  140.0070  158.2379 N.ar    1  UNL1       -0.2282
     18 C         142.4212  139.3821  159.3597 C.ar    1  UNL1        0.1318
     19 N         142.0225  138.0001  158.9342 N.ar    1  UNL1       -0.3393
     20 H         141.5047  137.3565  159.4698 H       1  UNL1        0.1671
     21 CL        143.4175  133.0285  155.3950 Cl      1  UNL1       -0.0752
     22 C         142.7822  134.3409  155.7471 C.ar    1  UNL1        0.0870
     23 C         141.4711  134.8532  155.2287 C.ar    1  UNL1        0.0185
     24 C         141.2251  136.2004  155.8406 C.ar    1  UNL1        0.0094
     25 C         142.3841  136.5208  156.7373 C.ar    1  UNL1        0.0474
     26 S         143.3464  135.3716  156.6795 S.2     1  UNL1       -0.0740
     27 C         140.2334  143.2392  162.0682 C.3     1  UNL1        0.0252
     28 C         138.9123  143.2986  162.7760 C.3     1  UNL1        0.0339
     29 C         138.1388  144.5832  162.8139 C.3     1  UNL1        0.1422
     30 O         138.6864  145.8085  162.1440 O.3     1  UNL1       -0.3538
     31 C         140.0075  145.7492  161.4361 C.3     1  UNL1        0.1422
     32 C         140.7810  144.4646  161.3983 C.3     1  UNL1        0.0339
@<TRIPOS>BOND
     1    21    22    1
     2    22    23   ar
     3    23    24   ar
     4    24    25   ar
     5    25    15    1
     6    15    16   ar
     7    16    17   ar
     8    17    18   ar
     9     1    18    1
    10     1     2    1
    11     2     3    1
    12     3     4    2
    13     4     5    1
    14     5     6    2
    15     6     7    1
    16     7     8    1
    17     8     9    2
    18     9    10    1
    19    10    11    2
    20     4    12    1
    21    12    27    1
    22    27    28    1
    23    28    29    1
    24    29    30    1
    25    30    31    1
    26    31    32    1
    27    12    13    1
    28    18    19   ar
    29    25    26   ar
    30    26    22   ar
    31    19    15   ar
    32    13     1    1
    33    11     3    1
    34    32    27    1
    35    11     6    1
    36    13    14    1
    37    19    20    1
@<TRIPOS>MOLECULE
*****
 32 37 0 0 0
SMALL
GASTEIGER

@<TRIPOS>ATOM
      1 C         143.1242  139.2818  158.0591 C.3     1  UNL1        0.1161
      2 C         142.3432  140.4598  157.5568 C.3     1  UNL1        0.0510
      3 C         142.1925  141.6808  158.4149 C.2     1  UNL1       -0.0044
      4 C         142.8229  141.7238  159.7753 C.2     1  UNL1        0.0689
      5 N         142.5061  143.0544  160.3911 N.2     1  UNL1       -0.2526
      6 C         141.6800  143.8338  159.4112 C.2     1  UNL1        0.0627
      7 C         141.0792  145.2067  159.4733 C.3     1  UNL1        0.0717
      8 C         140.2845  145.7308  158.3141 C.2     1  UNL1       -0.0198
      9 C         140.0907  144.8818  157.0927 C.2     1  UNL1       -0.0042
     10 C         140.6915  143.5088  157.0306 C.2     1  UNL1        0.0006
     11 C         141.4862  142.9848  158.1899 C.2     1  UNL1        0.0111
     12 C         143.6039  140.5458  160.2776 C.3     1  UNL1        0.0949
     13 N         143.7546  139.3248  159.4195 N.3     1  UNL1       -0.2887
     14 H         143.3670  138.5435  159.9485 H       1  UNL1        0.1239
     15 C         143.1196  135.7810  156.3827 C.ar    1  UNL1        0.0830
     16 C         143.8934  136.5824  155.3782 C.ar    1  UNL1        0.1176
     17 N         143.9893  137.9913  155.8839 N.ar    1  UNL1       -0.2282
     18 C         143.2748  138.0607  157.2009 C.ar    1  UNL1        0.1318
     19 N         142.7373  136.6947  157.5092 N.ar    1  UNL1       -0.3393
     20 H         142.2237  136.4421  158.3103 H       1  UNL1        0.1671
     21 CL        143.1309  130.5593  157.1668 Cl      1  UNL1       -0.0752
     22 C         142.7918  131.9219  156.6393 C.ar    1  UNL1        0.0870
     23 C         141.7566  132.2323  155.5991 C.ar    1  UNL1        0.0185
     24 C         141.7534  133.7156  155.3764 C.ar    1  UNL1        0.0094
     25 C         142.7866  134.3221  156.2789 C.ar    1  UNL1        0.0474
     26 S         143.4284  133.2136  157.0594 S.2     1  UNL1       -0.0740
     27 C         144.2343  140.5888  161.6381 C.3     1  UNL1        0.0252
     28 C         145.0626  141.7716  162.0438 C.3     1  UNL1        0.0339
     29 C         145.6930  141.8145  163.4043 C.3     1  UNL1        0.1422
     30 O         145.4950  140.6746  164.3589 O.3     1  UNL1       -0.3538
     31 C         144.6667  139.4917  163.9532 C.3     1  UNL1        0.1422
     32 C         144.0364  139.4488  162.5928 C.3     1  UNL1        0.0339
@<TRIPOS>BOND
     1    21    22    1
     2    22    23   ar
     3    23    24   ar
     4    24    25   ar
     5    25    15    1
     6    15    16   ar
     7    16    17   ar
     8    17    18   ar
     9     1    18    1
    10     1     2    1
    11     2     3    1
    12     3     4    2
    13     4     5    1
    14     5     6    2
    15     6     7    1
    16     7     8    1
    17     8     9    2
    18     9    10    1
    19    10    11    2
    20     4    12    1
    21    12    27    1
    22    27    28    1
    23    28    29    1
    24    29    30    1
    25    30    31    1
    26    31    32    1
    27    12    13    1
    28    18    19   ar
    29    25    26   ar
    30    26    22   ar
    31    19    15   ar
    32    13     1    1
    33    11     3    1
    34    32    27    1
    35    11     6    1
    36    13    14    1
    37    19    20    1
@<TRIPOS>MOLECULE
*****
 32 37 0 0 0
SMALL
GASTEIGER

@<TRIPOS>ATOM
      1 C         143.3119  139.9222  158.0732 C.3     1  UNL1        0.1161
      2 C         143.8810  139.9614  159.4605 C.3     1  UNL1        0.0510
      3 C         143.7378  141.1993  160.2953 C.2     1  UNL1       -0.0044
      4 C         143.0254  142.3982  159.7427 C.2     1  UNL1        0.0689
      5 N         143.0391  143.4699  160.7921 N.2     1  UNL1       -0.2526
      6 C         143.7599  142.9334  161.9932 C.2     1  UNL1        0.0627
      7 C         144.0789  143.5414  163.3268 C.3     1  UNL1        0.0717
      8 C         144.8296  142.7461  164.3534 C.2     1  UNL1       -0.0198
      9 C         145.2614  141.3428  164.0463 C.2     1  UNL1       -0.0042
     10 C         144.9425  140.7348  162.7127 C.2     1  UNL1        0.0006
     11 C         144.1917  141.5301  161.6862 C.2     1  UNL1        0.0111
     12 C         142.4563  142.3590  158.3554 C.3     1  UNL1        0.0949
     13 N         142.5996  141.1211  157.5207 N.3     1  UNL1       -0.2887
     14 H         143.0963  141.3937  156.6725 H       1  UNL1        0.1239
     15 C         143.2721  136.3942  156.4555 C.ar    1  UNL1        0.0830
     16 C         144.0792  137.1639  155.4525 C.ar    1  UNL1        0.1176
     17 N         144.1924  138.5791  155.9363 N.ar    1  UNL1       -0.2282
     18 C         143.4552  138.6841  157.2384 C.ar    1  UNL1        0.1318
     19 N         142.8864  137.3338  157.5593 N.ar    1  UNL1       -0.3393
     20 H         142.3535  137.1045  158.3548 H       1  UNL1        0.1671
     21 CL        143.2055  131.1807  157.2902 Cl      1  UNL1       -0.0752
     22 C         142.8830  132.5438  156.7535 C.ar    1  UNL1        0.0870
     23 C         141.8407  132.8616  155.7225 C.ar    1  UNL1        0.0185
     24 C         141.8596  134.3426  155.4854 C.ar    1  UNL1        0.0094
     25 C         142.9135  134.9402  156.3698 C.ar    1  UNL1        0.0474
     26 S         143.5460  133.8284  157.1535 S.2     1  UNL1       -0.0740
     27 C         141.7440  143.5579  157.8028 C.3     1  UNL1        0.0252
     28 C         142.4823  144.8507  157.6200 C.3     1  UNL1        0.0339
     29 C         141.7699  146.0495  157.0674 C.3     1  UNL1        0.1422
     30 O         140.3192  145.9555  156.6977 O.3     1  UNL1       -0.3538
     31 C         139.5809  144.6626  156.8805 C.3     1  UNL1        0.1422
     32 C         140.2933  143.4639  157.4331 C.3     1  UNL1        0.0339
@<TRIPOS>BOND
     1    21    22    1
     2    22    23   ar
     3    23    24   ar
     4    24    25   ar
     5    25    15    1
     6    15    16   ar
     7    16    17   ar
     8    17    18   ar
     9     1    18    1
    10     1     2    1
    11     2     3    1
    12     3     4    2
    13     4     5    1
    14     5     6    2
    15     6     7    1
    16     7     8    1
    17     8     9    2
    18     9    10    1
    19    10    11    2
    20     4    12    1
    21    12    27    1
    22    27    28    1
    23    28    29    1
    24    29    30    1
    25    30    31    1
    26    31    32    1
    27    12    13    1
    28    18    19   ar
    29    25    26   ar
    30    26    22   ar
    31    19    15   ar
    32    13     1    1
    33    11     3    1
    34    32    27    1
    35    11     6    1
    36    13    14    1
    37    19    20    1
@<TRIPOS>MOLECULE
*****
 32 37 0 0 0
SMALL
GASTEIGER

@<TRIPOS>ATOM
      1 C         139.3926  139.7470  157.6892 C.3     1  UNL1        0.1161
      2 C         139.0686  139.6528  159.1507 C.3     1  UNL1        0.0510
      3 C         138.7457  140.8938  159.9289 C.2     1  UNL1       -0.0044
      4 C         138.7468  142.2291  159.2455 C.2     1  UNL1        0.0689
      5 N         138.3919  143.2713  160.2642 N.2     1  UNL1       -0.2526
      6 C         138.1716  142.5802  161.5772 C.2     1  UNL1        0.0627
      7 C         137.8000  143.0991  162.9346 C.3     1  UNL1        0.0717
      8 C         137.6472  142.1486  164.0848 C.2     1  UNL1       -0.0198
      9 C         137.8659  140.6791  163.8776 C.2     1  UNL1       -0.0042
     10 C         138.2374  140.1602  162.5202 C.2     1  UNL1        0.0006
     11 C         138.3902  141.1108  161.3700 C.2     1  UNL1        0.0111
     12 C         139.0707  142.3233  157.7840 C.3     1  UNL1        0.0949
     13 N         139.3936  141.0823  157.0058 N.3     1  UNL1       -0.2887
     14 H         140.3274  141.2133  156.6168 H       1  UNL1        0.1239
     15 C         140.8545  136.5245  156.0944 C.ar    1  UNL1        0.0830
     16 C         139.5703  136.6679  155.3327 C.ar    1  UNL1        0.1176
     17 N         138.8663  137.8925  155.8374 N.ar    1  UNL1       -0.2282
     18 C         139.7155  138.5059  156.9110 C.ar    1  UNL1        0.1318
     19 N         140.9443  137.6605  157.0698 N.ar    1  UNL1       -0.3393
     20 H         141.6804  137.8227  157.7031 H       1  UNL1        0.1671
     21 CL        143.2484  132.1113  154.4589 Cl      1  UNL1       -0.0752
     22 C         142.9710  133.4076  155.1608 C.ar    1  UNL1        0.0870
     23 C         143.8977  134.1152  156.1046 C.ar    1  UNL1        0.0185
     24 C         143.2177  135.3689  156.5691 C.ar    1  UNL1        0.0094
     25 C         141.8707  135.4362  155.9125 C.ar    1  UNL1        0.0474
     26 S         141.7183  134.2241  155.0421 S.2     1  UNL1       -0.0740
     27 C         139.0718  143.6586  157.1006 C.3     1  UNL1        0.0252
     28 C         138.1324  143.9183  155.9605 C.3     1  UNL1        0.0339
     29 C         138.1335  145.2537  155.2771 C.3     1  UNL1        0.1422
     30 O         139.0740  146.3292  155.7339 O.3     1  UNL1       -0.3538
     31 C         140.0134  146.0695  156.8741 C.3     1  UNL1        0.1422
     32 C         140.0123  144.7342  157.5574 C.3     1  UNL1        0.0339
@<TRIPOS>BOND
     1    21    22    1
     2    22    23   ar
     3    23    24   ar
     4    24    25   ar
     5    25    15    1
     6    15    16   ar
     7    16    17   ar
     8    17    18   ar
     9     1    18    1
    10     1     2    1
    11     2     3    1
    12     3     4    2
    13     4     5    1
    14     5     6    2
    15     6     7    1
    16     7     8    1
    17     8     9    2
    18     9    10    1
    19    10    11    2
    20     4    12    1
    21    12    27    1
    22    27    28    1
    23    28    29    1
    24    29    30    1
    25    30    31    1
    26    31    32    1
    27    12    13    1
    28    18    19   ar
    29    25    26   ar
    30    26    22   ar
    31    19    15   ar
    32    13     1    1
    33    11     3    1
    34    32    27    1
    35    11     6    1
    36    13    14    1
    37    19    20    1
@<TRIPOS>MOLECULE
*****
 32 37 0 0 0
SMALL
GASTEIGER

@<TRIPOS>ATOM
      1 C         140.0538  145.2606  158.3561 C.3     1  UNL1        0.1161
      2 C         139.6975  143.9785  157.6638 C.3     1  UNL1        0.0510
      3 C         139.2734  143.9957  156.2251 C.2     1  UNL1       -0.0044
      4 C         139.2056  145.2951  155.4788 C.2     1  UNL1        0.0689
      5 N         138.7561  145.0021  154.0780 N.2     1  UNL1       -0.2526
      6 C         138.5462  143.5216  153.9587 C.2     1  UNL1        0.0627
      7 C         138.1052  142.6596  152.8131 C.3     1  UNL1        0.0717
      8 C         137.9839  141.1756  152.9946 C.2     1  UNL1       -0.0198
      9 C         138.3036  140.5536  154.3216 C.2     1  UNL1       -0.0042
     10 C         138.7446  141.4157  155.4671 C.2     1  UNL1        0.0006
     11 C         138.8659  142.8997  155.2857 C.2     1  UNL1        0.0111
     12 C         139.5619  146.5772  156.1711 C.3     1  UNL1        0.0949
     13 N         139.9860  146.5600  157.6098 N.3     1  UNL1       -0.2887
     14 H         139.3324  147.1569  158.1166 H       1  UNL1        0.1239
     15 C         141.7387  144.8181  161.8247 C.ar    1  UNL1        0.0830
     16 C         140.5226  145.6153  162.1928 C.ar    1  UNL1        0.1176
     17 N         139.7434  145.8781  160.9383 N.ar    1  UNL1       -0.2282
     18 C         140.4779  145.2433  159.7949 C.ar    1  UNL1        0.1318
     19 N         141.7111  144.5882  160.3426 N.ar    1  UNL1       -0.3393
     20 H         142.3842  144.0941  159.8211 H       1  UNL1        0.1671
     21 CL        145.6114  141.9585  163.9939 Cl      1  UNL1       -0.0752
     22 C         144.5768  143.0210  163.7693 C.ar    1  UNL1        0.0870
     23 C         144.2726  144.1645  164.6913 C.ar    1  UNL1        0.0185
     24 C         143.1725  144.9769  164.0751 C.ar    1  UNL1        0.0094
     25 C         142.7967  144.3355  162.7722 C.ar    1  UNL1        0.0474
     26 S         143.6646  143.1267  162.5833 S.2     1  UNL1       -0.0740
     27 C         139.4940  147.8766  155.4247 C.3     1  UNL1        0.0252
     28 C         138.7281  149.0317  155.9981 C.3     1  UNL1        0.0339
     29 C         138.6602  150.3311  155.2516 C.3     1  UNL1        0.1422
     30 O         139.3585  150.4752  153.9319 O.3     1  UNL1       -0.3538
     31 C         140.1245  149.3200  153.3585 C.3     1  UNL1        0.1422
     32 C         140.1923  148.0208  154.1049 C.3     1  UNL1        0.0339
@<TRIPOS>BOND
     1    21    22    1
     2    22    23   ar
     3    23    24   ar
     4    24    25   ar
     5    25    15    1
     6    15    16   ar
     7    16    17   ar
     8    17    18   ar
     9     1    18    1
    10     1     2    1
    11     2     3    1
    12     3     4    2
    13     4     5    1
    14     5     6    2
    15     6     7    1
    16     7     8    1
    17     8     9    2
    18     9    10    1
    19    10    11    2
    20     4    12    1
    21    12    27    1
    22    27    28    1
    23    28    29    1
    24    29    30    1
    25    30    31    1
    26    31    32    1
    27    12    13    1
    28    18    19   ar
    29    25    26   ar
    30    26    22   ar
    31    19    15   ar
    32    13     1    1
    33    11     3    1
    34    32    27    1
    35    11     6    1
    36    13    14    1
    37    19    20    1
@<TRIPOS>MOLECULE
*****
 32 37 0 0 0
SMALL
GASTEIGER

@<TRIPOS>ATOM
      1 C         141.3368  139.6781  161.3180 C.3     1  UNL1        0.1161
      2 C         140.4188  138.9459  162.2514 C.3     1  UNL1        0.0510
      3 C         140.2371  139.4315  163.6589 C.2     1  UNL1       -0.0044
      4 C         140.9734  140.6494  164.1330 C.2     1  UNL1        0.0689
      5 N         140.5971  140.8903  165.5649 N.2     1  UNL1       -0.2526
      6 C         139.6283  139.8214  165.9758 C.2     1  UNL1        0.0627
      7 C         138.9199  139.5526  167.2703 C.3     1  UNL1        0.0717
      8 C         137.9891  138.3822  167.3869 C.2     1  UNL1       -0.0198
      9 C         137.7667  137.4806  166.2090 C.2     1  UNL1       -0.0042
     10 C         138.4750  137.7494  164.9144 C.2     1  UNL1        0.0006
     11 C         139.4058  138.9198  164.7978 C.2     1  UNL1        0.0111
     12 C         141.8913  141.3816  163.1995 C.3     1  UNL1        0.0949
     13 N         142.0730  140.8959  161.7920 N.3     1  UNL1       -0.2887
     14 H         143.0676  140.7036  161.6730 H       1  UNL1        0.1239
     15 C         142.2349  137.8882  157.9930 C.ar    1  UNL1        0.0830
     16 C         141.3611  139.0015  157.4960 C.ar    1  UNL1        0.1176
     17 N         140.9183  139.8075  158.6810 N.ar    1  UNL1       -0.2282
     18 C         141.5184  139.1923  159.9104 C.ar    1  UNL1        0.1318
     19 N         142.3321  138.0061  159.4852 N.ar    1  UNL1       -0.3393
     20 H         142.8406  137.4097  160.0810 H       1  UNL1        0.1671
     21 CL        144.0372  133.2407  156.2513 Cl      1  UNL1       -0.0752
     22 C         143.7239  134.7045  156.3459 C.ar    1  UNL1        0.0870
     23 C         144.1001  135.7534  155.3417 C.ar    1  UNL1        0.0185
     24 C         143.5881  137.0737  155.8365 C.ar    1  UNL1        0.0094
     25 C         142.8955  136.8408  157.1465 C.ar    1  UNL1        0.0474
     26 S         142.9794  135.3766  157.4613 S.2     1  UNL1       -0.0740
     27 C         142.6276  142.5994  163.6736 C.3     1  UNL1        0.0252
     28 C         143.7465  142.4616  164.6630 C.3     1  UNL1        0.0339
     29 C         144.4827  143.6796  165.1370 C.3     1  UNL1        0.1422
     30 O         144.1001  145.0352  164.6216 O.3     1  UNL1       -0.3538
     31 C         142.9811  145.1731  163.6322 C.3     1  UNL1        0.1422
     32 C         142.2449  143.9552  163.1582 C.3     1  UNL1        0.0339
@<TRIPOS>BOND
     1    21    22    1
     2    22    23   ar
     3    23    24   ar
     4    24    25   ar
     5    25    15    1
     6    15    16   ar
     7    16    17   ar
     8    17    18   ar
     9     1    18    1
    10     1     2    1
    11     2     3    1
    12     3     4    2
    13     4     5    1
    14     5     6    2
    15     6     7    1
    16     7     8    1
    17     8     9    2
    18     9    10    1
    19    10    11    2
    20     4    12    1
    21    12    27    1
    22    27    28    1
    23    28    29    1
    24    29    30    1
    25    30    31    1
    26    31    32    1
    27    12    13    1
    28    18    19   ar
    29    25    26   ar
    30    26    22   ar
    31    19    15   ar
    32    13     1    1
    33    11     3    1
    34    32    27    1
    35    11     6    1
    36    13    14    1
    37    19    20    1
@<TRIPOS>MOLECULE
*****
 32 37 0 0 0
SMALL
GASTEIGER

@<TRIPOS>ATOM
      1 C         142.2193  138.7959  158.6573 C.3     1  UNL1        0.1161
      2 C         142.1184  140.2772  158.4441 C.3     1  UNL1        0.0510
      3 C         141.5674  141.1552  159.5284 C.2     1  UNL1       -0.0044
      4 C         141.1173  140.5517  160.8258 C.2     1  UNL1        0.0689
      5 N         140.6203  141.6607  161.7050 N.2     1  UNL1       -0.2526
      6 C         140.7632  142.9495  160.9510 C.2     1  UNL1        0.0627
      7 C         140.4359  144.3673  161.3156 C.3     1  UNL1        0.0717
      8 C         140.6940  145.4725  160.3349 C.2     1  UNL1       -0.0198
      9 C         141.2793  145.1600  158.9896 C.2     1  UNL1       -0.0042
     10 C         141.6066  143.7423  158.6251 C.2     1  UNL1        0.0006
     11 C         141.3485  142.6371  159.6058 C.2     1  UNL1        0.0111
     12 C         141.2183  139.0703  161.0389 C.3     1  UNL1        0.0949
     13 N         141.7692  138.1924  159.9547 N.3     1  UNL1       -0.2887
     14 H         141.0424  137.5139  159.7274 H       1  UNL1        0.1239
     15 C         143.2992  135.9693  156.2262 C.ar    1  UNL1        0.0830
     16 C         143.9371  137.1646  155.5826 C.ar    1  UNL1        0.1176
     17 N         143.6102  138.3689  156.4149 N.ar    1  UNL1       -0.2282
     18 C         142.7703  137.9179  157.5729 C.ar    1  UNL1        0.1318
     19 N         142.5780  136.4349  157.4564 N.ar    1  UNL1       -0.3393
     20 H         142.0681  135.8669  158.0781 H       1  UNL1        0.1671
     21 CL        144.4959  130.8429  155.8149 Cl      1  UNL1       -0.0752
     22 C         143.9201  132.2001  155.5383 C.ar    1  UNL1        0.0870
     23 C         143.0377  132.5644  154.3812 C.ar    1  UNL1        0.0185
     24 C         142.6978  134.0207  154.4981 C.ar    1  UNL1        0.0094
     25 C         143.3700  134.5564  155.7274 C.ar    1  UNL1        0.0474
     26 S         144.1254  133.4312  156.3703 S.2     1  UNL1       -0.0740
     27 C         140.7682  138.4669  162.3364 C.3     1  UNL1        0.0252
     28 C         141.7754  137.8780  163.2789 C.3     1  UNL1        0.0339
     29 C         141.3253  137.2745  164.5764 C.3     1  UNL1        0.1422
     30 O         139.8680  137.2600  164.9312 O.3     1  UNL1       -0.3538
     31 C         138.8607  137.8490  163.9885 C.3     1  UNL1        0.1422
     32 C         139.3108  138.4524  162.6912 C.3     1  UNL1        0.0339
@<TRIPOS>BOND
     1    21    22    1
     2    22    23   ar
     3    23    24   ar
     4    24    25   ar
     5    25    15    1
     6    15    16   ar
     7    16    17   ar
     8    17    18   ar
     9     1    18    1
    10     1     2    1
    11     2     3    1
    12     3     4    2
    13     4     5    1
    14     5     6    2
    15     6     7    1
    16     7     8    1
    17     8     9    2
    18     9    10    1
    19    10    11    2
    20     4    12    1
    21    12    27    1
    22    27    28    1
    23    28    29    1
    24    29    30    1
    25    30    31    1
    26    31    32    1
    27    12    13    1
    28    18    19   ar
    29    25    26   ar
    30    26    22   ar
    31    19    15   ar
    32    13     1    1
    33    11     3    1
    34    32    27    1
    35    11     6    1
    36    13    14    1
    37    19    20    1
@<TRIPOS>MOLECULE
*****
 32 37 0 0 0
SMALL
GASTEIGER

@<TRIPOS>ATOM
      1 C         139.8883  138.8924  158.3551 C.3     1  UNL1        0.1161
      2 C         139.9640  140.3842  158.2184 C.3     1  UNL1        0.0510
      3 C         140.0404  141.2467  159.4433 C.2     1  UNL1       -0.0044
      4 C         140.0410  140.6173  160.8048 C.2     1  UNL1        0.0689
      5 N         140.1247  141.7156  161.8230 N.2     1  UNL1       -0.2526
      6 C         140.1758  143.0237  161.0908 C.2     1  UNL1        0.0627
      7 C         140.2630  144.4413  161.5733 C.3     1  UNL1        0.0717
      8 C         140.2982  145.5691  160.5849 C.2     1  UNL1       -0.0198
      9 C         140.2461  145.2793  159.1141 C.2     1  UNL1       -0.0042
     10 C         140.1588  143.8617  158.6316 C.2     1  UNL1        0.0006
     11 C         140.1237  142.7339  159.6200 C.2     1  UNL1        0.0111
     12 C         139.9652  139.1255  160.9415 C.3     1  UNL1        0.0949
     13 N         139.8889  138.2630  159.7167 N.3     1  UNL1       -0.2887
     14 H         139.0278  137.7214  159.7911 H       1  UNL1        0.1239
     15 C         140.3314  136.3613  155.4460 C.ar    1  UNL1        0.0830
     16 C         139.0576  137.0441  155.0446 C.ar    1  UNL1        0.1176
     17 N         138.7365  138.0753  156.0855 N.ar    1  UNL1       -0.2282
     18 C         139.8119  138.0299  157.1302 C.ar    1  UNL1        0.1318
     19 N         140.7977  136.9706  156.7350 N.ar    1  UNL1       -0.3393
     20 H         141.6083  136.7193  157.2340 H       1  UNL1        0.1671
     21 CL        143.0630  131.9829  154.3285 Cl      1  UNL1       -0.0752
     22 C         142.2741  133.2496  154.1774 C.ar    1  UNL1        0.0870
     23 C         141.8774  133.8921  152.8812 C.ar    1  UNL1        0.0185
     24 C         141.1015  135.1359  153.1987 C.ar    1  UNL1        0.0094
     25 C         141.0185  135.2622  154.6910 C.ar    1  UNL1        0.0474
     26 S         141.7432  134.0965  155.2959 S.2     1  UNL1       -0.0740
     27 C         139.9658  138.4961  162.3031 C.3     1  UNL1        0.0252
     28 C         138.7847  138.6712  163.2108 C.3     1  UNL1        0.0339
     29 C         138.7853  138.0417  164.5724 C.3     1  UNL1        0.1422
     30 O         139.9672  137.2373  165.0262 O.3     1  UNL1       -0.3538
     31 C         141.1485  137.0622  164.1185 C.3     1  UNL1        0.1422
     32 C         141.1478  137.6916  162.7570 C.3     1  UNL1        0.0339
@<TRIPOS>BOND
     1    21    22    1
     2    22    23   ar
     3    23    24   ar
     4    24    25   ar
     5    25    15    1
     6    15    16   ar
     7    16    17   ar
     8    17    18   ar
     9     1    18    1
    10     1     2    1
    11     2     3    1
    12     3     4    2
    13     4     5    1
    14     5     6    2
    15     6     7    1
    16     7     8    1
    17     8     9    2
    18     9    10    1
    19    10    11    2
    20     4    12    1
    21    12    27    1
    22    27    28    1
    23    28    29    1
    24    29    30    1
    25    30    31    1
    26    31    32    1
    27    12    13    1
    28    18    19   ar
    29    25    26   ar
    30    26    22   ar
    31    19    15   ar
    32    13     1    1
    33    11     3    1
    34    32    27    1
    35    11     6    1
    36    13    14    1
    37    19    20    1
