@<TRIPOS>MOLECULE
*****
 34 38 0 0 0
SMALL
GASTEIGER

@<TRIPOS>ATOM
      1 N         142.7758  138.7361  163.4980 N.3     1  UNL1       -0.2726
      2 C         143.9770  138.9985  162.6388 C.3     1  UNL1        0.0721
      3 C         144.6604  140.2276  163.1606 C.3     1  UNL1        0.0190
      4 C         143.8816  140.7248  164.3422 C.3     1  UNL1        0.0202
      5 C         144.7665  141.9013  164.6295 C.3     1  UNL1        0.0062
      6 C         143.5653  141.6389  165.4886 C.3     1  UNL1        0.0259
      7 C         142.7168  139.8030  164.5507 C.3     1  UNL1        0.0724
      8 C         142.6892  142.0152  166.6466 C.ar    1  UNL1        0.0050
      9 C         143.2516  142.0355  168.0370 C.ar    1  UNL1       -0.0021
     10 C         142.3754  142.4118  169.1949 C.ar    1  UNL1        0.0037
     11 C         140.9369  142.7677  168.9624 C.ar    1  UNL1        0.0736
     12 C         140.3746  142.7473  167.5719 C.ar    1  UNL1        0.0332
     13 C         141.2507  142.3710  166.4140 C.ar    1  UNL1        0.1361
     14 F         140.6884  142.3507  165.0236 F       1  UNL1       -0.2045
     15 C         140.0608  143.1439  170.1203 C.3     1  UNL1        0.4186
     16 F         139.1846  143.5202  171.2783 F       1  UNL1       -0.1659
     17 F         139.7522  141.6953  170.3575 F       1  UNL1       -0.1659
     18 F         140.3694  144.5925  169.8831 F       1  UNL1       -0.1659
     19 C         141.8041  137.6053  163.3333 C.3     1  UNL1        0.0730
     20 C         140.6566  137.4574  164.2880 C.3     1  UNL1        0.0294
     21 C         139.2958  137.9623  163.9092 C.3     1  UNL1        0.0666
     22 S         139.0858  138.6285  162.5818 S.3     1  UNL1       -0.0756
     23 C         138.7518  142.4728  162.1622 C.ar    1  UNL1        0.2029
     24 N         137.3967  142.1211  162.7009 N.ar    1  UNL1       -0.1250
     25 N         137.3569  140.6383  162.9237 N.ar    1  UNL1       -0.1220
     26 C         138.6874  140.0734  162.5226 C.ar    1  UNL1        0.1933
     27 N         139.5495  141.2072  162.0520 N.ar    1  UNL1       -0.2860
     28 C         140.9613  141.0950  161.5580 C.3     1  UNL1        0.1341
     29 C         139.0789  144.9938  164.2084 C.3     1  UNL1        0.0556
     30 C         139.3762  145.0072  162.7382 C.ar    1  UNL1        0.1001
     31 N         139.8762  146.1817  161.9504 N.ar    1  UNL1       -0.2085
     32 C         140.0348  145.7488  160.5230 C.ar    1  UNL1        0.2849
     33 O         139.6329  144.3067  160.4287 O.2     1  UNL1       -0.4283
     34 C         139.2259  143.8484  161.7977 C.ar    1  UNL1        0.1964
@<TRIPOS>BOND
     1    29    30    1
     2    30    31   ar
     3    31    32   ar
     4    32    33   ar
     5    33    34   ar
     6    34    23    1
     7    23    24   ar
     8    24    25   ar
     9    25    26   ar
    10    26    22    1
    11    22    21    1
    12    21    20    1
    13    20    19    1
    14    19     1    1
    15     1     2    1
    16     2     3    1
    17     4     3    1
    18     4     5    1
    19     5     6    1
    20     6     8    1
    21     8     9   ar
    22     9    10   ar
    23    10    11   ar
    24    11    15    1
    25    15    16    1
    26    15    17    1
    27    15    18    1
    28    11    12   ar
    29    12    13   ar
    30    13    14    1
    31     4     7    1
    32    26    27   ar
    33    27    28    1
    34    34    30   ar
    35    27    23   ar
    36     7     1    1
    37     6     4    1
    38    13     8   ar
@<TRIPOS>MOLECULE
*****
 34 38 0 0 0
SMALL
GASTEIGER

@<TRIPOS>ATOM
      1 N         138.3300  140.9885  162.0784 N.3     1  UNL1       -0.2726
      2 C         137.7135  139.9080  161.2402 C.3     1  UNL1        0.0721
      3 C         138.0163  138.5894  161.8878 C.3     1  UNL1        0.0190
      4 C         138.8200  138.8548  163.1262 C.3     1  UNL1        0.0202
      5 C         138.9610  137.4178  163.5326 C.3     1  UNL1        0.0062
      6 C         139.5775  138.4982  164.3708 C.3     1  UNL1        0.0259
      7 C         139.0139  140.3375  163.2440 C.3     1  UNL1        0.0724
      8 C         140.3708  138.9162  165.5733 C.ar    1  UNL1        0.0050
      9 C         139.6801  139.5497  166.7444 C.ar    1  UNL1       -0.0021
     10 C         140.4734  139.9676  167.9469 C.ar    1  UNL1        0.0037
     11 C         141.9575  139.7520  167.9782 C.ar    1  UNL1        0.0736
     12 C         142.6482  139.1185  166.8071 C.ar    1  UNL1        0.0332
     13 C         141.8549  138.7006  165.6046 C.ar    1  UNL1        0.1361
     14 F         142.5456  138.0671  164.4336 F       1  UNL1       -0.2045
     15 C         142.7508  140.1700  169.1807 C.3     1  UNL1        0.4186
     16 F         143.5441  140.5879  170.3832 F       1  UNL1       -0.1659
     17 F         142.4255  138.8667  169.8482 F       1  UNL1       -0.1659
     18 F         143.0760  141.4732  168.5131 F       1  UNL1       -0.1659
     19 C         138.2728  142.4613  161.7999 C.3     1  UNL1        0.0730
     20 C         137.6415  143.3888  162.7954 C.3     1  UNL1        0.0294
     21 C         138.2653  144.7234  163.0778 C.3     1  UNL1        0.0666
     22 S         139.0779  144.9231  164.3226 S.3     1  UNL1       -0.0756
     23 C         142.2765  142.7262  164.4180 C.ar    1  UNL1        0.2029
     24 N         141.6921  142.4464  165.7709 N.ar    1  UNL1       -0.1250
     25 N         140.4228  143.2352  165.8998 N.ar    1  UNL1       -0.1220
     26 C         140.2227  144.0027  164.6266 C.ar    1  UNL1        0.1933
     27 N         141.3683  143.6881  163.7108 N.ar    1  UNL1       -0.2860
     28 C         141.5703  144.2388  162.3302 C.3     1  UNL1        0.1341
     29 C         142.4954  140.4466  162.0931 C.3     1  UNL1        0.0556
     30 C         143.6467  141.0983  162.8002 C.ar    1  UNL1        0.1001
     31 N         145.1007  140.8166  162.5628 N.ar    1  UNL1       -0.2085
     32 C         145.8987  141.6903  163.4847 C.ar    1  UNL1        0.2849
     33 O         144.9379  142.5120  164.2919 O.2     1  UNL1       -0.4283
     34 C         143.5460  142.1461  163.8688 C.ar    1  UNL1        0.1964
@<TRIPOS>BOND
     1    29    30    1
     2    30    31   ar
     3    31    32   ar
     4    32    33   ar
     5    33    34   ar
     6    34    23    1
     7    23    24   ar
     8    24    25   ar
     9    25    26   ar
    10    26    22    1
    11    22    21    1
    12    21    20    1
    13    20    19    1
    14    19     1    1
    15     1     2    1
    16     2     3    1
    17     4     3    1
    18     4     5    1
    19     5     6    1
    20     6     8    1
    21     8     9   ar
    22     9    10   ar
    23    10    11   ar
    24    11    15    1
    25    15    16    1
    26    15    17    1
    27    15    18    1
    28    11    12   ar
    29    12    13   ar
    30    13    14    1
    31     4     7    1
    32    26    27   ar
    33    27    28    1
    34    34    30   ar
    35    27    23   ar
    36     7     1    1
    37     6     4    1
    38    13     8   ar
@<TRIPOS>MOLECULE
*****
 34 38 0 0 0
SMALL
GASTEIGER

@<TRIPOS>ATOM
      1 N         138.1022  140.1858  163.1026 N.3     1  UNL1       -0.2726
      2 C         138.0754  138.8326  162.4561 C.3     1  UNL1        0.0721
      3 C         139.0292  137.9450  163.1994 C.3     1  UNL1        0.0190
      4 C         139.6454  138.7496  164.3052 C.3     1  UNL1        0.0202
      5 C         140.5080  137.6455  164.8407 C.3     1  UNL1        0.0062
      6 C         140.5348  138.9988  165.4871 C.3     1  UNL1        0.0259
      7 C         139.0724  140.1346  164.2454 C.3     1  UNL1        0.0724
      8 C         141.0637  139.9240  166.5427 C.ar    1  UNL1        0.0050
      9 C         142.4379  140.5096  166.4066 C.ar    1  UNL1       -0.0021
     10 C         142.9668  141.4348  167.4622 C.ar    1  UNL1        0.0037
     11 C         142.1215  141.7743  168.6539 C.ar    1  UNL1        0.0736
     12 C         140.7473  141.1886  168.7900 C.ar    1  UNL1        0.0332
     13 C         140.2184  140.2634  167.7344 C.ar    1  UNL1        0.1361
     14 F         138.8442  139.6778  167.8705 F       1  UNL1       -0.2045
     15 C         142.6504  142.6995  169.7095 C.3     1  UNL1        0.4186
     16 F         143.1793  143.6247  170.7651 F       1  UNL1       -0.1659
     17 F         144.0275  142.1391  169.5106 F       1  UNL1       -0.1659
     18 F         141.2733  143.2599  169.9083 F       1  UNL1       -0.1659
     19 C         137.2995  141.3806  162.6804 C.3     1  UNL1        0.0730
     20 C         137.9921  142.5970  162.1413 C.3     1  UNL1        0.0294
     21 C         137.7995  143.9271  162.8076 C.3     1  UNL1        0.0666
     22 S         138.8947  144.9512  162.7684 S.3     1  UNL1       -0.0756
     23 C         142.4956  143.5208  162.5372 C.ar    1  UNL1        0.2029
     24 N         142.4049  144.2872  161.2509 N.ar    1  UNL1       -0.1250
     25 N         141.0450  144.9163  161.1809 N.ar    1  UNL1       -0.1220
     26 C         140.2952  144.5387  162.4240 C.ar    1  UNL1        0.1933
     27 N         141.1916  143.6763  163.2622 N.ar    1  UNL1       -0.2860
     28 C         140.8450  143.0749  164.5920 C.3     1  UNL1        0.1341
     29 C         144.3250  144.2100  165.1502 C.3     1  UNL1        0.0556
     30 C         144.5227  143.0535  164.2157 C.ar    1  UNL1        0.1001
     31 N         145.5960  142.0107  164.3181 N.ar    1  UNL1       -0.2085
     32 C         145.4185  141.0494  163.1804 C.ar    1  UNL1        0.2849
     33 O         144.2355  141.4981  162.3748 O.2     1  UNL1       -0.4283
     34 C         143.6819  142.7367  163.0146 C.ar    1  UNL1        0.1964
@<TRIPOS>BOND
     1    29    30    1
     2    30    31   ar
     3    31    32   ar
     4    32    33   ar
     5    33    34   ar
     6    34    23    1
     7    23    24   ar
     8    24    25   ar
     9    25    26   ar
    10    26    22    1
    11    22    21    1
    12    21    20    1
    13    20    19    1
    14    19     1    1
    15     1     2    1
    16     2     3    1
    17     4     3    1
    18     4     5    1
    19     5     6    1
    20     6     8    1
    21     8     9   ar
    22     9    10   ar
    23    10    11   ar
    24    11    15    1
    25    15    16    1
    26    15    17    1
    27    15    18    1
    28    11    12   ar
    29    12    13   ar
    30    13    14    1
    31     4     7    1
    32    26    27   ar
    33    27    28    1
    34    34    30   ar
    35    27    23   ar
    36     7     1    1
    37     6     4    1
    38    13     8   ar
@<TRIPOS>MOLECULE
*****
 34 38 0 0 0
SMALL
GASTEIGER

@<TRIPOS>ATOM
      1 N         143.3185  143.3512  162.0518 N.3     1  UNL1       -0.2726
      2 C         144.5306  142.8512  161.3232 C.3     1  UNL1        0.0721
      3 C         145.1631  141.7776  162.1583 C.3     1  UNL1        0.0190
      4 C         144.3420  141.6141  163.4028 C.3     1  UNL1        0.0202
      5 C         145.1830  140.5272  164.0039 C.3     1  UNL1        0.0062
      6 C         143.9709  141.0272  164.7324 C.3     1  UNL1        0.0259
      7 C         143.2019  142.5867  163.3370 C.3     1  UNL1        0.0724
      8 C         143.0568  140.9770  165.9207 C.ar    1  UNL1        0.0050
      9 C         142.0712  139.8551  166.0619 C.ar    1  UNL1       -0.0021
     10 C         141.1572  139.8049  167.2502 C.ar    1  UNL1        0.0037
     11 C         141.2287  140.8767  168.2972 C.ar    1  UNL1        0.0736
     12 C         142.2143  141.9986  168.1559 C.ar    1  UNL1        0.0332
     13 C         143.1283  142.0488  166.9677 C.ar    1  UNL1        0.1361
     14 F         144.1138  143.1706  166.8264 F       1  UNL1       -0.2045
     15 C         140.3146  140.8265  169.4854 C.3     1  UNL1        0.4186
     16 F         139.4005  140.7763  170.6737 F       1  UNL1       -0.1659
     17 F         139.8777  142.2346  169.2087 F       1  UNL1       -0.1659
     18 F         140.7515  139.4185  169.7621 F       1  UNL1       -0.1659
     19 C         142.3865  144.4270  161.5782 C.3     1  UNL1        0.0730
     20 C         140.9048  144.1934  161.5880 C.3     1  UNL1        0.0294
     21 C         139.9845  145.2377  162.1470 C.3     1  UNL1        0.0666
     22 S         138.8086  144.8305  162.9844 S.3     1  UNL1       -0.0756
     23 C         138.1485  141.0872  163.7707 C.ar    1  UNL1        0.2029
     24 N         137.3628  141.2604  162.5047 N.ar    1  UNL1       -0.1250
     25 N         137.5144  142.6837  162.0561 N.ar    1  UNL1       -0.1220
     26 C         138.3939  143.3902  163.0448 C.ar    1  UNL1        0.1933
     27 N         138.7858  142.4035  164.1045 N.ar    1  UNL1       -0.2860
     28 C         139.6612  142.6839  165.2898 C.3     1  UNL1        0.1341
     29 C         139.5296  138.3133  162.7470 C.3     1  UNL1        0.0556
     30 C         138.9097  138.5452  164.0931 C.ar    1  UNL1        0.1001
     31 N         138.8157  137.5428  165.2050 N.ar    1  UNL1       -0.2085
     32 C         138.1228  138.1983  166.3627 C.ar    1  UNL1        0.2849
     33 O         137.7886  139.6058  165.9663 O.2     1  UNL1       -0.4283
     34 C         138.2749  139.8202  164.5636 C.ar    1  UNL1        0.1964
@<TRIPOS>BOND
     1    29    30    1
     2    30    31   ar
     3    31    32   ar
     4    32    33   ar
     5    33    34   ar
     6    34    23    1
     7    23    24   ar
     8    24    25   ar
     9    25    26   ar
    10    26    22    1
    11    22    21    1
    12    21    20    1
    13    20    19    1
    14    19     1    1
    15     1     2    1
    16     2     3    1
    17     4     3    1
    18     4     5    1
    19     5     6    1
    20     6     8    1
    21     8     9   ar
    22     9    10   ar
    23    10    11   ar
    24    11    15    1
    25    15    16    1
    26    15    17    1
    27    15    18    1
    28    11    12   ar
    29    12    13   ar
    30    13    14    1
    31     4     7    1
    32    26    27   ar
    33    27    28    1
    34    34    30   ar
    35    27    23   ar
    36     7     1    1
    37     6     4    1
    38    13     8   ar
@<TRIPOS>MOLECULE
*****
 34 38 0 0 0
SMALL
GASTEIGER

@<TRIPOS>ATOM
      1 N         140.8529  144.6890  162.8327 N.3     1  UNL1       -0.2726
      2 C         139.5743  145.1424  162.1926 C.3     1  UNL1        0.0721
      3 C         138.4364  144.4767  162.9080 C.3     1  UNL1        0.0190
      4 C         139.0116  143.6119  163.9903 C.3     1  UNL1        0.0202
      5 C         137.6958  143.1048  164.5018 C.3     1  UNL1        0.0062
      6 C         138.9744  142.6515  165.1419 C.3     1  UNL1        0.0259
      7 C         140.5051  143.7431  163.9438 C.3     1  UNL1        0.0724
      8 C         139.6911  141.8352  166.1764 C.ar    1  UNL1        0.0050
      9 C         140.8438  142.4270  166.9322 C.ar    1  UNL1       -0.0021
     10 C         141.5605  141.6108  167.9666 C.ar    1  UNL1        0.0037
     11 C         141.1245  140.2028  168.2452 C.ar    1  UNL1        0.0736
     12 C         139.9719  139.6111  167.4894 C.ar    1  UNL1        0.0332
     13 C         139.2552  140.4273  166.4550 C.ar    1  UNL1        0.1361
     14 F         138.1026  139.8356  165.6992 F       1  UNL1       -0.2045
     15 C         141.8413  139.3866  169.2797 C.3     1  UNL1        0.4186
     16 F         142.5580  138.5703  170.3142 F       1  UNL1       -0.1659
     17 F         142.9664  139.1529  168.3157 F       1  UNL1       -0.1659
     18 F         140.7161  139.6203  170.2437 F       1  UNL1       -0.1659
     19 C         142.2364  145.1080  162.4321 C.3     1  UNL1        0.0730
     20 C         143.4281  144.5346  163.1399 C.3     1  UNL1        0.0294
     21 C         144.5032  143.8406  162.3572 C.3     1  UNL1        0.0666
     22 S         144.7744  142.3830  162.5848 S.3     1  UNL1       -0.0756
     23 C         141.6965  140.1765  163.4352 C.ar    1  UNL1        0.2029
     24 N         142.4509  140.1336  164.7310 N.ar    1  UNL1       -0.1250
     25 N         143.6957  140.9550  164.5702 N.ar    1  UNL1       -0.1220
     26 C         143.7107  141.5055  163.1749 C.ar    1  UNL1        0.1933
     27 N         142.4752  141.0244  162.4735 N.ar    1  UNL1       -0.2860
     28 C         142.0865  141.3364  161.0587 C.3     1  UNL1        0.1341
     29 C         141.0580  137.0069  163.8774 C.3     1  UNL1        0.0556
     30 C         140.0991  138.0348  163.3543 C.ar    1  UNL1        0.1001
     31 N         138.6782  137.7864  162.9426 N.ar    1  UNL1       -0.2085
     32 C         138.0936  139.0898  162.4849 C.ar    1  UNL1        0.2849
     33 O         139.1531  140.1437  162.6137 O.2     1  UNL1       -0.4283
     34 C         140.3925  139.4917  163.1510 C.ar    1  UNL1        0.1964
@<TRIPOS>BOND
     1    29    30    1
     2    30    31   ar
     3    31    32   ar
     4    32    33   ar
     5    33    34   ar
     6    34    23    1
     7    23    24   ar
     8    24    25   ar
     9    25    26   ar
    10    26    22    1
    11    22    21    1
    12    21    20    1
    13    20    19    1
    14    19     1    1
    15     1     2    1
    16     2     3    1
    17     4     3    1
    18     4     5    1
    19     5     6    1
    20     6     8    1
    21     8     9   ar
    22     9    10   ar
    23    10    11   ar
    24    11    15    1
    25    15    16    1
    26    15    17    1
    27    15    18    1
    28    11    12   ar
    29    12    13   ar
    30    13    14    1
    31     4     7    1
    32    26    27   ar
    33    27    28    1
    34    34    30   ar
    35    27    23   ar
    36     7     1    1
    37     6     4    1
    38    13     8   ar
@<TRIPOS>MOLECULE
*****
 34 38 0 0 0
SMALL
GASTEIGER

@<TRIPOS>ATOM
      1 N         142.3694  141.1916  161.2291 N.3     1  UNL1       -0.2726
      2 C         143.6202  140.5736  160.6783 C.3     1  UNL1        0.0721
      3 C         144.4053  140.0137  161.8272 C.3     1  UNL1        0.0190
      4 C         143.6398  140.2858  163.0881 C.3     1  UNL1        0.0202
      5 C         144.6282  139.6409  164.0139 C.3     1  UNL1        0.0062
      6 C         143.3774  140.2589  164.5648 C.3     1  UNL1        0.0259
      7 C         142.3815  141.0138  162.7185 C.3     1  UNL1        0.0724
      8 C         142.5037  140.6003  165.7353 C.ar    1  UNL1        0.0050
      9 C         141.9271  139.5068  166.5849 C.ar    1  UNL1       -0.0021
     10 C         141.0534  139.8481  167.7554 C.ar    1  UNL1        0.0037
     11 C         140.7564  141.2829  168.0764 C.ar    1  UNL1        0.0736
     12 C         141.3331  142.3764  167.2268 C.ar    1  UNL1        0.0332
     13 C         142.2067  142.0351  166.0563 C.ar    1  UNL1        0.1361
     14 F         142.7833  143.1285  165.2068 F       1  UNL1       -0.2045
     15 C         139.8827  141.6243  169.2469 C.3     1  UNL1        0.4186
     16 F         139.0090  141.9657  170.4175 F       1  UNL1       -0.1659
     17 F         139.2166  140.2845  169.1404 F       1  UNL1       -0.1659
     18 F         140.5489  142.9640  169.3534 F       1  UNL1       -0.1659
     19 C         141.2950  141.8687  160.4308 C.3     1  UNL1        0.0730
     20 C         140.1597  141.0657  159.8684 C.3     1  UNL1        0.0294
     21 C         140.4401  139.8274  159.0697 C.3     1  UNL1        0.0666
     22 S         140.0655  138.4816  159.6161 S.3     1  UNL1       -0.0756
     23 C         139.5741  138.0631  163.4435 C.ar    1  UNL1        0.2029
     24 N         140.9837  137.5777  163.2774 N.ar    1  UNL1       -0.1250
     25 N         141.3393  137.6754  161.8234 N.ar    1  UNL1       -0.1220
     26 C         140.1496  138.2212  161.0909 C.ar    1  UNL1        0.1933
     27 N         139.0586  138.4609  162.0921 N.ar    1  UNL1       -0.2860
     28 C         137.6921  139.0030  161.7943 C.3     1  UNL1        0.1341
     29 C         138.5862  140.7937  164.9327 C.3     1  UNL1        0.0556
     30 C         138.3596  139.3929  165.4188 C.ar    1  UNL1        0.1001
     31 N         137.6390  139.0011  166.6747 N.ar    1  UNL1       -0.2085
     32 C         137.6478  137.5040  166.7664 C.ar    1  UNL1        0.2849
     33 O         138.3737  136.9704  165.5671 O.2     1  UNL1       -0.4283
     34 C         138.8136  138.1378  164.7343 C.ar    1  UNL1        0.1964
@<TRIPOS>BOND
     1    29    30    1
     2    30    31   ar
     3    31    32   ar
     4    32    33   ar
     5    33    34   ar
     6    34    23    1
     7    23    24   ar
     8    24    25   ar
     9    25    26   ar
    10    26    22    1
    11    22    21    1
    12    21    20    1
    13    20    19    1
    14    19     1    1
    15     1     2    1
    16     2     3    1
    17     4     3    1
    18     4     5    1
    19     5     6    1
    20     6     8    1
    21     8     9   ar
    22     9    10   ar
    23    10    11   ar
    24    11    15    1
    25    15    16    1
    26    15    17    1
    27    15    18    1
    28    11    12   ar
    29    12    13   ar
    30    13    14    1
    31     4     7    1
    32    26    27   ar
    33    27    28    1
    34    34    30   ar
    35    27    23   ar
    36     7     1    1
    37     6     4    1
    38    13     8   ar
@<TRIPOS>MOLECULE
*****
 34 38 0 0 0
SMALL
GASTEIGER

@<TRIPOS>ATOM
      1 N         142.8789  143.3440  162.0380 N.3     1  UNL1       -0.2726
      2 C         144.0923  143.0268  161.2152 C.3     1  UNL1        0.0721
      3 C         144.9762  142.1229  162.0224 C.3     1  UNL1        0.0190
      4 C         144.3091  141.8815  163.3441 C.3     1  UNL1        0.0202
      5 C         145.3793  140.9891  163.8993 C.3     1  UNL1        0.0062
      6 C         144.1659  141.3064  164.7220 C.3     1  UNL1        0.0259
      7 C         143.0129  142.6362  163.3537 C.3     1  UNL1        0.0724
      8 C         143.3827  141.1575  165.9926 C.ar    1  UNL1        0.0050
      9 C         143.1965  142.3362  166.9014 C.ar    1  UNL1       -0.0021
     10 C         142.4132  142.1873  168.1720 C.ar    1  UNL1        0.0037
     11 C         141.8161  140.8597  168.5337 C.ar    1  UNL1        0.0736
     12 C         142.0023  139.6809  167.6248 C.ar    1  UNL1        0.0332
     13 C         142.7856  139.8298  166.3543 C.ar    1  UNL1        0.1361
     14 F         142.9717  138.6512  165.4455 F       1  UNL1       -0.2045
     15 C         141.0329  140.7108  169.8042 C.3     1  UNL1        0.4186
     16 F         140.2496  140.5619  171.0748 F       1  UNL1       -0.1659
     17 F         140.7709  142.1877  169.8158 F       1  UNL1       -0.1659
     18 F         141.2949  139.2339  169.7926 F       1  UNL1       -0.1659
     19 C         141.7326  144.2160  161.6187 C.3     1  UNL1        0.0730
     20 C         141.1000  145.1500  162.6073 C.3     1  UNL1        0.0294
     21 C         139.6509  145.5138  162.4744 C.3     1  UNL1        0.0666
     22 S         138.6091  144.7260  163.2120 S.3     1  UNL1       -0.0756
     23 C         139.4995  141.1915  164.5462 C.ar    1  UNL1        0.2029
     24 N         139.7095  142.0264  165.7745 N.ar    1  UNL1       -0.1250
     25 N         139.4015  143.4520  165.4243 N.ar    1  UNL1       -0.1220
     26 C         139.0012  143.4983  163.9794 C.ar    1  UNL1        0.1933
     27 N         139.0618  142.1012  163.4367 N.ar    1  UNL1       -0.2860
     28 C         138.7409  141.6866  162.0313 C.3     1  UNL1        0.1341
     29 C         138.0975  138.9399  166.4473 C.3     1  UNL1        0.0556
     30 C         139.0489  138.6726  165.3189 C.ar    1  UNL1        0.1001
     31 N         139.5228  137.3234  164.8661 N.ar    1  UNL1       -0.2085
     32 C         140.4602  137.5244  163.7125 C.ar    1  UNL1        0.2849
     33 O         140.5656  138.9979  163.4522 O.2     1  UNL1       -0.4283
     34 C         139.6933  139.7075  164.4450 C.ar    1  UNL1        0.1964
@<TRIPOS>BOND
     1    29    30    1
     2    30    31   ar
     3    31    32   ar
     4    32    33   ar
     5    33    34   ar
     6    34    23    1
     7    23    24   ar
     8    24    25   ar
     9    25    26   ar
    10    26    22    1
    11    22    21    1
    12    21    20    1
    13    20    19    1
    14    19     1    1
    15     1     2    1
    16     2     3    1
    17     4     3    1
    18     4     5    1
    19     5     6    1
    20     6     8    1
    21     8     9   ar
    22     9    10   ar
    23    10    11   ar
    24    11    15    1
    25    15    16    1
    26    15    17    1
    27    15    18    1
    28    11    12   ar
    29    12    13   ar
    30    13    14    1
    31     4     7    1
    32    26    27   ar
    33    27    28    1
    34    34    30   ar
    35    27    23   ar
    36     7     1    1
    37     6     4    1
    38    13     8   ar
@<TRIPOS>MOLECULE
*****
 34 38 0 0 0
SMALL
GASTEIGER

@<TRIPOS>ATOM
      1 N         138.1897  141.2812  163.3347 N.3     1  UNL1       -0.2726
      2 C         137.7633  142.5801  162.7176 C.3     1  UNL1        0.0721
      3 C         138.3333  143.6949  163.5435 C.3     1  UNL1        0.0190
      4 C         139.1121  143.0850  164.6712 C.3     1  UNL1        0.0202
      5 C         139.5379  144.3841  165.2883 C.3     1  UNL1        0.0062
      6 C         139.9644  143.0852  165.9055 C.3     1  UNL1        0.0259
      7 C         139.0234  141.5932  164.5421 C.3     1  UNL1        0.0724
      8 C         140.7027  142.3354  166.9744 C.ar    1  UNL1        0.0050
      9 C         139.9423  141.5432  167.9964 C.ar    1  UNL1       -0.0021
     10 C         140.6806  140.7934  169.0653 C.ar    1  UNL1        0.0037
     11 C         142.1793  140.8357  169.1123 C.ar    1  UNL1        0.0736
     12 C         142.9396  141.6278  168.0903 C.ar    1  UNL1        0.0332
     13 C         142.2014  142.3776  167.0214 C.ar    1  UNL1        0.1361
     14 F         142.9617  143.1697  165.9995 F       1  UNL1       -0.2045
     15 C         142.9176  140.0858  170.1812 C.3     1  UNL1        0.4186
     16 F         143.6559  139.3360  171.2502 F       1  UNL1       -0.1659
     17 F         141.9398  138.9545  170.0629 F       1  UNL1       -0.1659
     18 F         143.8953  141.2172  170.2996 F       1  UNL1       -0.1659
     19 C         137.8434  139.9108  162.8327 C.3     1  UNL1        0.0730
     20 C         138.4577  138.7006  163.4714 C.3     1  UNL1        0.0294
     21 C         139.1531  137.6766  162.6241 C.3     1  UNL1        0.0666
     22 S         140.6517  137.6202  162.5944 S.3     1  UNL1       -0.0756
     23 C         142.5113  140.9497  163.3168 C.ar    1  UNL1        0.2029
     24 N         142.8765  140.1448  164.5288 N.ar    1  UNL1       -0.1250
     25 N         142.2243  138.7996  164.4057 N.ar    1  UNL1       -0.1220
     26 C         141.4561  138.7731  163.1176 C.ar    1  UNL1        0.1933
     27 N         141.6335  140.1019  162.4446 N.ar    1  UNL1       -0.2860
     28 C         141.0376  140.5111  161.1303 C.3     1  UNL1        0.1341
     29 C         145.5935  141.9769  163.0089 C.3     1  UNL1        0.0556
     30 C         144.3642  142.8276  162.8863 C.ar    1  UNL1        0.1001
     31 N         144.3357  144.2999  162.6006 N.ar    1  UNL1       -0.2085
     32 C         142.9014  144.7376  162.5655 C.ar    1  UNL1        0.2849
     33 O         142.0435  143.5359  162.8296 O.2     1  UNL1       -0.4283
     34 C         142.9475  142.3555  163.0278 C.ar    1  UNL1        0.1964
@<TRIPOS>BOND
     1    29    30    1
     2    30    31   ar
     3    31    32   ar
     4    32    33   ar
     5    33    34   ar
     6    34    23    1
     7    23    24   ar
     8    24    25   ar
     9    25    26   ar
    10    26    22    1
    11    22    21    1
    12    21    20    1
    13    20    19    1
    14    19     1    1
    15     1     2    1
    16     2     3    1
    17     4     3    1
    18     4     5    1
    19     5     6    1
    20     6     8    1
    21     8     9   ar
    22     9    10   ar
    23    10    11   ar
    24    11    15    1
    25    15    16    1
    26    15    17    1
    27    15    18    1
    28    11    12   ar
    29    12    13   ar
    30    13    14    1
    31     4     7    1
    32    26    27   ar
    33    27    28    1
    34    34    30   ar
    35    27    23   ar
    36     7     1    1
    37     6     4    1
    38    13     8   ar
@<TRIPOS>MOLECULE
*****
 34 38 0 0 0
SMALL
GASTEIGER

@<TRIPOS>ATOM
      1 N         137.9081  141.4194  162.9354 N.3     1  UNL1       -0.2726
      2 C         137.6576  140.3719  161.8914 C.3     1  UNL1        0.0721
      3 C         138.1899  139.0675  162.4065 C.3     1  UNL1        0.0190
      4 C         138.7694  139.3090  163.7689 C.3     1  UNL1        0.0202
      5 C         139.1993  137.8923  164.0097 C.3     1  UNL1        0.0062
      6 C         139.4498  138.9398  165.0537 C.3     1  UNL1        0.0259
      7 C         138.5952  140.7625  164.0957 C.3     1  UNL1        0.0724
      8 C         139.9873  139.3315  166.3982 C.ar    1  UNL1        0.0050
      9 C         139.0518  139.8043  167.4712 C.ar    1  UNL1       -0.0021
     10 C         139.5893  140.1960  168.8157 C.ar    1  UNL1        0.0037
     11 C         141.0622  140.1148  169.0872 C.ar    1  UNL1        0.0736
     12 C         141.9978  139.6420  168.0142 C.ar    1  UNL1        0.0332
     13 C         141.4603  139.2503  166.6697 C.ar    1  UNL1        0.1361
     14 F         142.3957  138.7775  165.5968 F       1  UNL1       -0.2045
     15 C         141.5997  140.5065  170.4317 C.3     1  UNL1        0.4186
     16 F         142.1372  140.8982  171.7762 F       1  UNL1       -0.1659
     17 F         140.2922  141.1627  170.7632 F       1  UNL1       -0.1659
     18 F         142.9072  139.8504  170.1001 F       1  UNL1       -0.1659
     19 C         137.5367  142.8693  162.8364 C.3     1  UNL1        0.0730
     20 C         138.1717  143.8706  163.7551 C.3     1  UNL1        0.0294
     21 C         138.9670  145.0095  163.1889 C.3     1  UNL1        0.0666
     22 S         140.4655  144.9452  163.1773 S.3     1  UNL1       -0.0756
     23 C         142.1131  141.4314  163.2432 C.ar    1  UNL1        0.2029
     24 N         142.3596  141.8936  164.6488 N.ar    1  UNL1       -0.1250
     25 N         141.7724  143.2661  164.7952 N.ar    1  UNL1       -0.1220
     26 C         141.1630  143.6522  163.4801 C.ar    1  UNL1        0.1933
     27 N         141.3735  142.5183  162.5209 N.ar    1  UNL1       -0.2860
     28 C         140.9235  142.4784  161.0905 C.3     1  UNL1        0.1341
     29 C         145.0315  140.0167  163.6060 C.3     1  UNL1        0.0556
     30 C         143.8739  139.4635  162.8288 C.ar    1  UNL1        0.1001
     31 N         143.8545  138.1628  162.0819 N.ar    1  UNL1       -0.2085
     32 C         142.5012  138.0092  161.4535 C.ar    1  UNL1        0.2849
     33 O         141.6841  139.2149  161.8121 O.2     1  UNL1       -0.4283
     34 C         142.5325  140.1137  162.6621 C.ar    1  UNL1        0.1964
@<TRIPOS>BOND
     1    29    30    1
     2    30    31   ar
     3    31    32   ar
     4    32    33   ar
     5    33    34   ar
     6    34    23    1
     7    23    24   ar
     8    24    25   ar
     9    25    26   ar
    10    26    22    1
    11    22    21    1
    12    21    20    1
    13    20    19    1
    14    19     1    1
    15     1     2    1
    16     2     3    1
    17     4     3    1
    18     4     5    1
    19     5     6    1
    20     6     8    1
    21     8     9   ar
    22     9    10   ar
    23    10    11   ar
    24    11    15    1
    25    15    16    1
    26    15    17    1
    27    15    18    1
    28    11    12   ar
    29    12    13   ar
    30    13    14    1
    31     4     7    1
    32    26    27   ar
    33    27    28    1
    34    34    30   ar
    35    27    23   ar
    36     7     1    1
    37     6     4    1
    38    13     8   ar
