@<TRIPOS>MOLECULE
*****
 25 27 0 0 0
SMALL
GASTEIGER

@<TRIPOS>ATOM
      1 N         139.7446  141.5507  164.9153 N.3     1  UNL1       -0.2700
      2 C         139.3686  140.1134  165.1227 C.3     1  UNL1        0.0628
      3 C         140.0078  139.0431  164.2886 C.3     1  UNL1        0.0481
      4 C         139.6318  137.6059  164.4961 C.3     1  UNL1        0.1435
      5 O         138.6166  137.2391  165.5376 O.3     1  UNL1       -0.3537
      6 C         137.9774  138.3094  166.3717 C.3     1  UNL1        0.1435
      7 C         138.3535  139.7466  166.1643 C.3     1  UNL1        0.0481
      8 C         138.9125  142.4222  164.0220 C.3     1  UNL1        0.0748
      9 C         138.5185  143.8435  164.2951 C.3     1  UNL1        0.0344
     10 C         137.6908  144.3251  163.1405 C.3     1  UNL1        0.0700
     11 N         137.5733  143.2015  162.1538 N.3     1  UNL1       -0.2963
     12 C         138.3284  142.0254  162.6986 C.3     1  UNL1        0.0847
     13 H         137.9718  143.4840  161.2584 H       1  UNL1        0.1233
     14 C         140.9527  142.1164  165.6013 C.3     1  UNL1        0.0988
     15 C         142.5156  140.0650  167.1340 C.3     1  UNL1        0.0307
     16 C         141.7860  141.1525  167.8655 C.ar    1  UNL1       -0.0206
     17 C         141.0045  142.1782  167.0991 C.ar    1  UNL1       -0.0101
     18 C         140.2749  143.2656  167.8306 C.ar    1  UNL1       -0.0032
     19 C         140.3267  143.3274  169.3284 C.ar    1  UNL1       -0.0004
     20 C         141.1082  142.3018  170.0947 C.ar    1  UNL1        0.0035
     21 C         141.8378  141.2143  169.3633 C.ar    1  UNL1        0.0672
     22 C         142.6193  140.1886  170.1297 C.3     1  UNL1        0.4183
     23 F         143.4008  139.1630  170.8960 F       1  UNL1       -0.1659
     24 F         141.4198  139.2882  170.1478 F       1  UNL1       -0.1659
     25 F         143.8188  141.0890  170.1115 F       1  UNL1       -0.1659
@<TRIPOS>BOND
     1    15    16    1
     2    16    17   ar
     3    17    14    1
     4    14     1    1
     5     1     2    1
     6     2     3    1
     7     3     4    1
     8     4     5    1
     9     5     6    1
    10     6     7    1
    11     8     1    1
    12     8     9    1
    13     9    10    1
    14    10    11    1
    15    11    12    1
    16    17    18   ar
    17    18    19   ar
    18    19    20   ar
    19    20    21   ar
    20    21    22    1
    21    22    23    1
    22    22    24    1
    23    22    25    1
    24    21    16   ar
    25     7     2    1
    26    12     8    1
    27    11    13    1
@<TRIPOS>MOLECULE
*****
 25 27 0 0 0
SMALL
GASTEIGER

@<TRIPOS>ATOM
      1 N         141.8511  142.1856  167.0203 N.3     1  UNL1       -0.2700
      2 C         142.8546  141.5545  166.1012 C.3     1  UNL1        0.0628
      3 C         143.7368  142.4171  165.2481 C.3     1  UNL1        0.0481
      4 C         144.7403  141.7860  164.3291 C.3     1  UNL1        0.1435
      5 O         144.8616  140.2924  164.2630 O.3     1  UNL1       -0.3537
      6 C         143.9794  139.4298  165.1161 C.3     1  UNL1        0.1435
      7 C         142.9759  140.0609  166.0351 C.3     1  UNL1        0.0481
      8 C         142.2288  142.5072  168.4359 C.3     1  UNL1        0.0748
      9 C         143.5918  142.3504  169.0421 C.3     1  UNL1        0.0344
     10 C         143.5152  142.7883  170.4747 C.3     1  UNL1        0.0700
     11 N         142.1048  143.2157  170.7540 N.3     1  UNL1       -0.2963
     12 C         141.3097  143.0419  169.4939 C.3     1  UNL1        0.0847
     13 H         142.0900  144.1945  171.0404 H       1  UNL1        0.1233
     14 C         140.4699  142.4951  166.5238 C.3     1  UNL1        0.0988
     15 C         139.5616  139.9673  167.8600 C.3     1  UNL1        0.0307
     16 C         139.2514  140.2032  166.4115 C.ar    1  UNL1       -0.0206
     17 C         139.7055  141.4671  165.7434 C.ar    1  UNL1       -0.0101
     18 C         139.3953  141.7029  164.2949 C.ar    1  UNL1       -0.0032
     19 C         138.6309  140.6750  163.5146 C.ar    1  UNL1       -0.0004
     20 C         138.1768  139.4111  164.1827 C.ar    1  UNL1        0.0035
     21 C         138.4870  139.1753  165.6312 C.ar    1  UNL1        0.0672
     22 C         138.0329  137.9113  166.2993 C.3     1  UNL1        0.4183
     23 F         137.5788  136.6474  166.9673 F       1  UNL1       -0.1659
     24 F         137.0809  138.7016  167.1473 F       1  UNL1       -0.1659
     25 F         138.9848  137.1211  165.4512 F       1  UNL1       -0.1659
@<TRIPOS>BOND
     1    15    16    1
     2    16    17   ar
     3    17    14    1
     4    14     1    1
     5     1     2    1
     6     2     3    1
     7     3     4    1
     8     4     5    1
     9     5     6    1
    10     6     7    1
    11     8     1    1
    12     8     9    1
    13     9    10    1
    14    10    11    1
    15    11    12    1
    16    17    18   ar
    17    18    19   ar
    18    19    20   ar
    19    20    21   ar
    20    21    22    1
    21    22    23    1
    22    22    24    1
    23    22    25    1
    24    21    16   ar
    25     7     2    1
    26    12     8    1
    27    11    13    1
@<TRIPOS>MOLECULE
*****
 25 27 0 0 0
SMALL
GASTEIGER

@<TRIPOS>ATOM
      1 N         140.5845  142.1535  167.1150 N.3     1  UNL1       -0.2700
      2 C         140.5860  143.0561  165.9169 C.3     1  UNL1        0.0628
      3 C         141.8177  143.1753  165.0693 C.3     1  UNL1        0.0481
      4 C         141.8192  144.0780  163.8713 C.3     1  UNL1        0.1435
      5 O         140.5890  144.8614  163.5210 O.3     1  UNL1       -0.3537
      6 C         139.3573  144.7422  164.3686 C.3     1  UNL1        0.1435
      7 C         139.3558  143.8396  165.5666 C.3     1  UNL1        0.0481
      8 C         141.2271  142.6031  168.3936 C.3     1  UNL1        0.0748
      9 C         142.6211  142.2779  168.8417 C.3     1  UNL1        0.0344
     10 C         142.8441  142.9307  170.1737 C.3     1  UNL1        0.0700
     11 N         141.5878  143.6594  170.5488 N.3     1  UNL1       -0.2963
     12 C         140.5884  143.4569  169.4487 C.3     1  UNL1        0.0847
     13 H         141.7844  144.6541  170.6591 H       1  UNL1        0.1233
     14 C         139.9404  140.8012  167.0344 C.3     1  UNL1        0.0988
     15 C         138.2359  140.1437  164.6547 C.3     1  UNL1        0.0307
     16 C         139.5659  139.4733  164.8329 C.ar    1  UNL1       -0.0206
     17 C         140.4181  139.8020  166.0227 C.ar    1  UNL1       -0.0101
     18 C         141.7480  139.1316  166.2009 C.ar    1  UNL1       -0.0032
     19 C         142.2258  138.1324  165.1893 C.ar    1  UNL1       -0.0004
     20 C         141.3736  137.8037  163.9995 C.ar    1  UNL1        0.0035
     21 C         140.0436  138.4741  163.8213 C.ar    1  UNL1        0.0672
     22 C         139.1914  138.1453  162.6315 C.3     1  UNL1        0.4183
     23 F         138.3393  137.8166  161.4416 F       1  UNL1       -0.1659
     24 F         138.5131  137.0621  163.4166 F       1  UNL1       -0.1659
     25 F         139.8697  139.2285  161.8464 F       1  UNL1       -0.1659
@<TRIPOS>BOND
     1    15    16    1
     2    16    17   ar
     3    17    14    1
     4    14     1    1
     5     1     2    1
     6     2     3    1
     7     3     4    1
     8     4     5    1
     9     5     6    1
    10     6     7    1
    11     8     1    1
    12     8     9    1
    13     9    10    1
    14    10    11    1
    15    11    12    1
    16    17    18   ar
    17    18    19   ar
    18    19    20   ar
    19    20    21   ar
    20    21    22    1
    21    22    23    1
    22    22    24    1
    23    22    25    1
    24    21    16   ar
    25     7     2    1
    26    12     8    1
    27    11    13    1
@<TRIPOS>MOLECULE
*****
 25 27 0 0 0
SMALL
GASTEIGER

@<TRIPOS>ATOM
      1 N         142.3906  141.3958  166.6683 N.3     1  UNL1       -0.2700
      2 C         143.4703  141.2714  165.6344 C.3     1  UNL1        0.0628
      3 C         143.8830  139.9167  165.1402 C.3     1  UNL1        0.0481
      4 C         144.9626  139.7923  164.1064 C.3     1  UNL1        0.1435
      5 O         145.6295  141.0227  163.5666 O.3     1  UNL1       -0.3537
      6 C         145.2168  142.3775  164.0608 C.3     1  UNL1        0.1435
      7 C         144.1372  142.5018  165.0946 C.3     1  UNL1        0.0481
      8 C         142.7253  141.2511  168.1233 C.3     1  UNL1        0.0748
      9 C         142.5238  140.0200  168.9562 C.3     1  UNL1        0.0344
     10 C         142.9943  140.3202  170.3486 C.3     1  UNL1        0.0700
     11 N         143.4866  141.7369  170.3762 N.3     1  UNL1       -0.2963
     12 C         143.3203  142.3122  169.0009 C.3     1  UNL1        0.0847
     13 H         144.4709  141.7561  170.6428 H       1  UNL1        0.1233
     14 C         140.9763  141.6648  166.2472 C.3     1  UNL1        0.0988
     15 C         140.6325  140.5223  163.4947 C.3     1  UNL1        0.0307
     16 C         139.8587  139.9512  164.6458 C.ar    1  UNL1       -0.0206
     17 C         140.0306  140.5225  166.0220 C.ar    1  UNL1       -0.0101
     18 C         139.2568  139.9514  167.1732 C.ar    1  UNL1       -0.0032
     19 C         138.3111  138.8091  166.9481 C.ar    1  UNL1       -0.0004
     20 C         138.1392  138.2378  165.5718 C.ar    1  UNL1        0.0035
     21 C         138.9130  138.8089  164.4207 C.ar    1  UNL1        0.0672
     22 C         138.7410  138.2376  163.0444 C.3     1  UNL1        0.4183
     23 F         138.5691  137.6663  161.6682 F       1  UNL1       -0.1659
     24 F         137.6843  139.2611  162.7516 F       1  UNL1       -0.1659
     25 F         139.7978  137.2142  163.3372 F       1  UNL1       -0.1659
@<TRIPOS>BOND
     1    15    16    1
     2    16    17   ar
     3    17    14    1
     4    14     1    1
     5     1     2    1
     6     2     3    1
     7     3     4    1
     8     4     5    1
     9     5     6    1
    10     6     7    1
    11     8     1    1
    12     8     9    1
    13     9    10    1
    14    10    11    1
    15    11    12    1
    16    17    18   ar
    17    18    19   ar
    18    19    20   ar
    19    20    21   ar
    20    21    22    1
    21    22    23    1
    22    22    24    1
    23    22    25    1
    24    21    16   ar
    25     7     2    1
    26    12     8    1
    27    11    13    1
@<TRIPOS>MOLECULE
*****
 25 27 0 0 0
SMALL
GASTEIGER

@<TRIPOS>ATOM
      1 N         140.1624  140.5608  164.6740 N.3     1  UNL1       -0.2700
      2 C         139.7214  141.9887  164.5452 C.3     1  UNL1        0.0628
      3 C         138.2650  142.3352  164.6389 C.3     1  UNL1        0.0481
      4 C         137.8240  143.7631  164.5101 C.3     1  UNL1        0.1435
      5 O         138.8395  144.8445  164.2877 O.3     1  UNL1       -0.3537
      6 C         140.2959  144.4980  164.1941 C.3     1  UNL1        0.1435
      7 C         140.7368  143.0701  164.3228 C.3     1  UNL1        0.0481
      8 C         139.6922  139.5383  163.6823 C.3     1  UNL1        0.0748
      9 C         139.9521  139.5580  162.2051 C.3     1  UNL1        0.0344
     10 C         139.3000  138.3485  161.6035 C.3     1  UNL1        0.0700
     11 N         138.6372  137.5812  162.7089 N.3     1  UNL1       -0.2963
     12 C         138.8796  138.3166  163.9937 C.3     1  UNL1        0.0847
     13 H         139.0348  136.6437  162.7664 H       1  UNL1        0.1233
     14 C         141.0737  140.1554  165.7943 C.3     1  UNL1        0.0988
     15 C         142.8219  142.0963  167.2697 C.3     1  UNL1        0.0307
     16 C         141.6172  141.5097  167.9439 C.ar    1  UNL1       -0.0206
     17 C         140.7431  140.5392  167.2063 C.ar    1  UNL1       -0.0101
     18 C         139.5384  139.9526  167.8805 C.ar    1  UNL1       -0.0032
     19 C         139.2078  140.3364  169.2923 C.ar    1  UNL1       -0.0004
     20 C         140.0819  141.3069  170.0299 C.ar    1  UNL1        0.0035
     21 C         141.2866  141.8935  169.3557 C.ar    1  UNL1        0.0672
     22 C         142.1607  142.8639  170.0935 C.3     1  UNL1        0.4183
     23 F         143.0348  143.8343  170.8311 F       1  UNL1       -0.1659
     24 F         141.2214  143.9787  169.7401 F       1  UNL1       -0.1659
     25 F         143.1001  141.7492  170.4468 F       1  UNL1       -0.1659
@<TRIPOS>BOND
     1    15    16    1
     2    16    17   ar
     3    17    14    1
     4    14     1    1
     5     1     2    1
     6     2     3    1
     7     3     4    1
     8     4     5    1
     9     5     6    1
    10     6     7    1
    11     8     1    1
    12     8     9    1
    13     9    10    1
    14    10    11    1
    15    11    12    1
    16    17    18   ar
    17    18    19   ar
    18    19    20   ar
    19    20    21   ar
    20    21    22    1
    21    22    23    1
    22    22    24    1
    23    22    25    1
    24    21    16   ar
    25     7     2    1
    26    12     8    1
    27    11    13    1
@<TRIPOS>MOLECULE
*****
 25 27 0 0 0
SMALL
GASTEIGER

@<TRIPOS>ATOM
      1 N         141.0822  139.6038  167.0330 N.3     1  UNL1       -0.2700
      2 C         140.1994  139.5762  165.8206 C.3     1  UNL1        0.0628
      3 C         139.8489  138.2671  165.1777 C.3     1  UNL1        0.0481
      4 C         138.9661  138.2396  163.9653 C.3     1  UNL1        0.1435
      5 O         138.4338  139.5212  163.3959 O.3     1  UNL1       -0.3537
      6 C         138.7844  140.8303  164.0388 C.3     1  UNL1        0.1435
      7 C         139.6672  140.8578  165.2511 C.3     1  UNL1        0.0481
      8 C         140.4848  139.8259  168.3909 C.3     1  UNL1        0.0748
      9 C         141.2442  139.9534  169.6781 C.3     1  UNL1        0.0344
     10 C         140.2519  140.1659  170.7827 C.3     1  UNL1        0.0700
     11 N         138.8791  140.1698  170.1781 N.3     1  UNL1       -0.2963
     12 C         139.0231  139.9597  168.6999 C.3     1  UNL1        0.0847
     13 H         138.4243  141.0649  170.3578 H       1  UNL1        0.1233
     14 C         142.5624  139.4091  166.8876 C.3     1  UNL1        0.0988
     15 C         142.6299  142.4081  166.9280 C.3     1  UNL1        0.0307
     16 C         143.3504  141.6562  165.8484 C.ar    1  UNL1       -0.0206
     17 C         143.3167  140.1568  165.8282 C.ar    1  UNL1       -0.0101
     18 C         144.0372  139.4049  164.7486 C.ar    1  UNL1       -0.0032
     19 C         144.7914  140.1524  163.6893 C.ar    1  UNL1       -0.0004
     20 C         144.8251  141.6518  163.7095 C.ar    1  UNL1        0.0035
     21 C         144.1046  142.4038  164.7891 C.ar    1  UNL1        0.0672
     22 C         144.1384  143.9033  164.8093 C.3     1  UNL1        0.4183
     23 F         144.1721  145.4027  164.8294 F       1  UNL1       -0.1659
     24 F         145.2596  143.8647  165.8050 F       1  UNL1       -0.1659
     25 F         143.0173  143.9419  163.8136 F       1  UNL1       -0.1659
@<TRIPOS>BOND
     1    15    16    1
     2    16    17   ar
     3    17    14    1
     4    14     1    1
     5     1     2    1
     6     2     3    1
     7     3     4    1
     8     4     5    1
     9     5     6    1
    10     6     7    1
    11     8     1    1
    12     8     9    1
    13     9    10    1
    14    10    11    1
    15    11    12    1
    16    17    18   ar
    17    18    19   ar
    18    19    20   ar
    19    20    21   ar
    20    21    22    1
    21    22    23    1
    22    22    24    1
    23    22    25    1
    24    21    16   ar
    25     7     2    1
    26    12     8    1
    27    11    13    1
@<TRIPOS>MOLECULE
*****
 25 27 0 0 0
SMALL
GASTEIGER

@<TRIPOS>ATOM
      1 N         141.0503  142.2431  167.2640 N.3     1  UNL1       -0.2700
      2 C         140.1657  142.3020  166.0539 C.3     1  UNL1        0.0628
      3 C         140.0186  143.5870  165.2943 C.3     1  UNL1        0.0481
      4 C         139.1342  143.6459  164.0843 C.3     1  UNL1        0.1435
      5 O         138.3968  142.4197  163.6338 O.3     1  UNL1       -0.3537
      6 C         138.5439  141.1347  164.3934 C.3     1  UNL1        0.1435
      7 C         139.4284  141.0758  165.6035 C.3     1  UNL1        0.0481
      8 C         140.4464  142.2764  168.6367 C.3     1  UNL1        0.0748
      9 C         140.3958  143.4660  169.5490 C.3     1  UNL1        0.0344
     10 C         139.7052  143.0508  170.8142 C.3     1  UNL1        0.0700
     11 N         139.3291  141.6046  170.6838 N.3     1  UNL1       -0.2963
     12 C         139.7871  141.1260  169.3380 C.3     1  UNL1        0.0847
     13 H         138.3173  141.5017  170.7619 H       1  UNL1        0.1233
     14 C         142.5385  142.1508  167.1014 C.3     1  UNL1        0.0988
     15 C         143.7484  143.3978  164.6557 C.3     1  UNL1        0.0307
     16 C         143.7282  141.9054  164.8047 C.ar    1  UNL1       -0.0206
     17 C         143.1233  141.2819  166.0275 C.ar    1  UNL1       -0.0101
     18 C         143.1030  139.7894  166.1765 C.ar    1  UNL1       -0.0032
     19 C         143.6877  138.9205  165.1028 C.ar    1  UNL1       -0.0004
     20 C         144.2927  139.5440  163.8800 C.ar    1  UNL1        0.0035
     21 C         144.3129  141.0364  163.7309 C.ar    1  UNL1        0.0672
     22 C         144.9178  141.6599  162.5081 C.3     1  UNL1        0.4183
     23 F         145.5227  142.2834  161.2852 F       1  UNL1       -0.1659
     24 F         146.2398  141.7548  163.2104 F       1  UNL1       -0.1659
     25 F         143.5959  141.5650  161.8057 F       1  UNL1       -0.1659
@<TRIPOS>BOND
     1    15    16    1
     2    16    17   ar
     3    17    14    1
     4    14     1    1
     5     1     2    1
     6     2     3    1
     7     3     4    1
     8     4     5    1
     9     5     6    1
    10     6     7    1
    11     8     1    1
    12     8     9    1
    13     9    10    1
    14    10    11    1
    15    11    12    1
    16    17    18   ar
    17    18    19   ar
    18    19    20   ar
    19    20    21   ar
    20    21    22    1
    21    22    23    1
    22    22    24    1
    23    22    25    1
    24    21    16   ar
    25     7     2    1
    26    12     8    1
    27    11    13    1
@<TRIPOS>MOLECULE
*****
 25 27 0 0 0
SMALL
GASTEIGER

@<TRIPOS>ATOM
      1 N         140.6722  141.5355  164.3189 N.3     1  UNL1       -0.2700
      2 C         141.5122  142.7159  163.9300 C.3     1  UNL1        0.0628
      3 C         141.0217  144.1073  164.2007 C.3     1  UNL1        0.0481
      4 C         141.8617  145.2876  163.8118 C.3     1  UNL1        0.1435
      5 O         143.1923  145.0764  163.1523 O.3     1  UNL1       -0.3537
      6 C         143.6829  143.6850  162.8817 C.3     1  UNL1        0.1435
      7 C         142.8428  142.5047  163.2705 C.3     1  UNL1        0.0481
      8 C         139.3238  141.3358  163.6929 C.3     1  UNL1        0.0748
      9 C         139.0516  140.6566  162.3834 C.3     1  UNL1        0.0344
     10 C         137.5704  140.6812  162.1476 C.3     1  UNL1        0.0700
     11 N         136.9273  141.3756  163.3113 N.3     1  UNL1       -0.2963
     12 C         138.0109  141.7801  164.2663 C.3     1  UNL1        0.0847
     13 H         136.2757  140.7425  163.7751 H       1  UNL1        0.1233
     14 C         141.1806  140.5550  165.3338 C.3     1  UNL1        0.0988
     15 C         142.9846  142.2527  167.0259 C.3     1  UNL1        0.0307
     16 C         141.7770  141.6039  167.6347 C.ar    1  UNL1       -0.0206
     17 C         140.8750  140.7551  166.7887 C.ar    1  UNL1       -0.0101
     18 C         139.6674  140.1062  167.3976 C.ar    1  UNL1       -0.0032
     19 C         139.3618  140.3063  168.8524 C.ar    1  UNL1       -0.0004
     20 C         140.2638  141.1552  169.6984 C.ar    1  UNL1        0.0035
     21 C         141.4714  141.8040  169.0895 C.ar    1  UNL1        0.0672
     22 C         142.3735  142.6529  169.9356 C.3     1  UNL1        0.4183
     23 F         143.2754  143.5018  170.7816 F       1  UNL1       -0.1659
     24 F         143.3079  141.4918  170.1044 F       1  UNL1       -0.1659
     25 F         141.4390  143.8140  169.7667 F       1  UNL1       -0.1659
@<TRIPOS>BOND
     1    15    16    1
     2    16    17   ar
     3    17    14    1
     4    14     1    1
     5     1     2    1
     6     2     3    1
     7     3     4    1
     8     4     5    1
     9     5     6    1
    10     6     7    1
    11     8     1    1
    12     8     9    1
    13     9    10    1
    14    10    11    1
    15    11    12    1
    16    17    18   ar
    17    18    19   ar
    18    19    20   ar
    19    20    21   ar
    20    21    22    1
    21    22    23    1
    22    22    24    1
    23    22    25    1
    24    21    16   ar
    25     7     2    1
    26    12     8    1
    27    11    13    1
@<TRIPOS>MOLECULE
*****
 25 27 0 0 0
SMALL
GASTEIGER

@<TRIPOS>ATOM
      1 N         140.8344  143.7029  164.0692 N.3     1  UNL1       -0.2700
      2 C         142.1426  142.9702  164.1120 C.3     1  UNL1        0.0628
      3 C         142.2560  141.6020  163.5077 C.3     1  UNL1        0.0481
      4 C         143.5641  140.8693  163.5506 C.3     1  UNL1        0.1435
      5 O         144.7588  141.5047  164.1978 O.3     1  UNL1       -0.3537
      6 C         144.6454  142.8729  164.8022 C.3     1  UNL1        0.1435
      7 C         143.3373  143.6056  164.7593 C.3     1  UNL1        0.0481
      8 C         140.4593  144.4975  162.8534 C.3     1  UNL1        0.0748
      9 C         141.2713  144.6255  161.5987 C.3     1  UNL1        0.0344
     10 C         140.5203  145.5106  160.6487 C.3     1  UNL1        0.0700
     11 N         139.2440  145.9297  161.3163 N.3     1  UNL1       -0.2963
     12 C         139.2064  145.3035  162.6788 C.3     1  UNL1        0.0847
     13 H         138.4455  145.6117  160.7671 H       1  UNL1        0.1233
     14 C         139.9014  143.6412  165.2420 C.3     1  UNL1        0.0988
     15 C         138.6510  141.0494  164.3938 C.3     1  UNL1        0.0307
     16 C         139.3060  141.1614  165.7385 C.ar    1  UNL1       -0.0206
     17 C         139.9312  142.4573  166.1626 C.ar    1  UNL1       -0.0101
     18 C         140.5863  142.5693  167.5074 C.ar    1  UNL1       -0.0032
     19 C         140.6161  141.3855  168.4280 C.ar    1  UNL1       -0.0004
     20 C         139.9910  140.0896  168.0039 C.ar    1  UNL1        0.0035
     21 C         139.3359  139.9776  166.6592 C.ar    1  UNL1        0.0672
     22 C         138.7107  138.6817  166.2351 C.3     1  UNL1        0.4183
     23 F         138.0856  137.3858  165.8110 F       1  UNL1       -0.1659
     24 F         137.4279  139.0826  166.9009 F       1  UNL1       -0.1659
     25 F         139.9936  138.2808  165.5692 F       1  UNL1       -0.1659
@<TRIPOS>BOND
     1    15    16    1
     2    16    17   ar
     3    17    14    1
     4    14     1    1
     5     1     2    1
     6     2     3    1
     7     3     4    1
     8     4     5    1
     9     5     6    1
    10     6     7    1
    11     8     1    1
    12     8     9    1
    13     9    10    1
    14    10    11    1
    15    11    12    1
    16    17    18   ar
    17    18    19   ar
    18    19    20   ar
    19    20    21   ar
    20    21    22    1
    21    22    23    1
    22    22    24    1
    23    22    25    1
    24    21    16   ar
    25     7     2    1
    26    12     8    1
    27    11    13    1
