@<TRIPOS>MOLECULE
*****
 39 43 0 0 0
SMALL
GASTEIGER

@<TRIPOS>ATOM
      1 C         143.7825  140.0391  160.1512 C.3     1  UNL1        0.0666
      2 S         144.0522  138.9827  161.1813 S.3     1  UNL1       -0.0756
      3 C         144.9850  140.6062  163.8541 C.3     1  UNL1        0.1340
      4 N         143.7547  139.7583  163.7220 N.ar    1  UNL1       -0.2884
      5 C         143.3260  139.0120  162.4935 C.ar    1  UNL1        0.1932
      6 N         142.0435  138.3002  162.8075 N.ar    1  UNL1       -0.1221
      7 N         141.6796  138.6065  164.2301 N.ar    1  UNL1       -0.1282
      8 C         142.7372  139.5077  164.7954 C.ar    1  UNL1        0.1668
      9 C         142.7713  140.0610  166.1891 C.ar    1  UNL1        0.0359
     10 C         142.9415  141.5354  166.4068 C.ar    1  UNL1        0.0027
     11 C         142.9756  142.0887  167.8006 C.ar    1  UNL1       -0.0037
     12 C         142.8395  141.1677  168.9767 C.ar    1  UNL1       -0.0131
     13 C         142.6693  139.6933  168.7590 C.ar    1  UNL1       -0.0037
     14 C         142.6353  139.1400  167.3652 C.ar    1  UNL1        0.0027
     15 C         142.8736  141.7210  170.3705 C.3     1  UNL1        0.1111
     16 C         142.6254  143.1818  170.6037 C.2     1  UNL1        0.2238
     17 N         143.7293  144.0574  171.1183 N.am    1  UNL1       -0.3285
     18 O         141.2733  143.7672  170.3225 O.2     1  UNL1       -0.2750
     19 H         144.6168  143.6733  171.3029 H       1  UNL1        0.1450
     20 H         143.5664  145.0162  171.2713 H       1  UNL1        0.1450
     21 C         142.8794  141.1915  160.4774 C.3     1  UNL1        0.0294
     22 C         143.4235  142.3912  161.1948 C.3     1  UNL1        0.0730
     23 N         142.5202  143.2242  162.0551 N.3     1  UNL1       -0.2726
     24 C         142.4713  144.7230  162.0898 C.3     1  UNL1        0.0721
     25 C         141.4281  145.1297  163.0879 C.3     1  UNL1        0.0190
     26 C         140.8321  143.8823  163.6700 C.3     1  UNL1        0.0201
     27 C         139.8714  144.5804  164.5864 C.3     1  UNL1        0.0061
     28 C         139.9202  143.0816  164.5516 C.3     1  UNL1        0.0237
     29 C         141.5070  142.7046  163.0316 C.3     1  UNL1        0.0724
     30 C         139.4220  141.7539  165.0406 C.ar    1  UNL1       -0.0225
     31 C         138.7665  140.8008  164.0856 C.ar    1  UNL1       -0.0043
     32 C         138.2682  139.4732  164.5745 C.ar    1  UNL1        0.0035
     33 C         138.4254  139.0987  166.0185 C.ar    1  UNL1        0.0714
     34 C         139.0809  140.0518  166.9735 C.ar    1  UNL1        0.0035
     35 C         139.5791  141.3794  166.4845 C.ar    1  UNL1       -0.0043
     36 C         137.9272  137.7710  166.5074 C.3     1  UNL1        0.4186
     37 F         137.4289  136.4433  166.9963 F       1  UNL1       -0.1659
     38 F         137.3298  138.4384  167.7106 F       1  UNL1       -0.1659
     39 F         138.5246  137.1037  165.3042 F       1  UNL1       -0.1659
@<TRIPOS>BOND
     1     3     4    1
     2     4     5   ar
     3     5     2    1
     4     2     1    1
     5     1    21    1
     6    21    22    1
     7    22    23    1
     8    23    24    1
     9    24    25    1
    10    26    25    1
    11    26    27    1
    12    27    28    1
    13    28    30    1
    14    30    31   ar
    15    31    32   ar
    16    32    33   ar
    17    33    36    1
    18    36    37    1
    19    36    38    1
    20    36    39    1
    21    33    34   ar
    22    34    35   ar
    23    26    29    1
    24     5     6   ar
    25     6     7   ar
    26     7     8   ar
    27     8     9    1
    28     9    10   ar
    29    10    11   ar
    30    11    12   ar
    31    12    15    1
    32    15    16    1
    33    16    17   am
    34    16    18    2
    35    12    13   ar
    36    13    14   ar
    37     8     4   ar
    38    14     9   ar
    39    29    23    1
    40    28    26    1
    41    35    30   ar
    42    17    19    1
    43    17    20    1
@<TRIPOS>MOLECULE
*****
 39 43 0 0 0
SMALL
GASTEIGER

@<TRIPOS>ATOM
      1 C         143.0433  140.0868  160.0424 C.3     1  UNL1        0.0666
      2 S         143.8103  139.3452  161.0968 S.3     1  UNL1       -0.0756
      3 C         141.9802  139.0073  163.7774 C.3     1  UNL1        0.1340
      4 N         143.2275  139.8322  163.6596 N.ar    1  UNL1       -0.2884
      5 C         144.0687  139.9875  162.4274 C.ar    1  UNL1        0.1932
      6 N         145.2137  140.8979  162.7595 N.ar    1  UNL1       -0.1221
      7 N         145.0801  141.3052  164.1970 N.ar    1  UNL1       -0.1282
      8 C         143.8525  140.6466  164.7533 C.ar    1  UNL1        0.1668
      9 C         143.3401  140.7791  166.1568 C.ar    1  UNL1        0.0359
     10 C         143.1446  142.1391  166.7586 C.ar    1  UNL1        0.0027
     11 C         142.6321  142.2716  168.1621 C.ar    1  UNL1       -0.0037
     12 C         142.3152  141.0440  168.9638 C.ar    1  UNL1       -0.0131
     13 C         142.5107  139.6840  168.3620 C.ar    1  UNL1       -0.0037
     14 C         143.0232  139.5516  166.9585 C.ar    1  UNL1        0.0027
     15 C         141.8027  141.1765  170.3673 C.3     1  UNL1        0.1111
     16 C         140.3576  140.9081  170.6666 C.2     1  UNL1        0.2238
     17 N         139.9258  139.5441  171.1174 N.am    1  UNL1       -0.3285
     18 O         139.3443  142.0036  170.5151 O.2     1  UNL1       -0.2750
     19 H         140.5909  138.8251  171.2168 H       1  UNL1        0.1450
     20 H         138.9773  139.3680  171.3138 H       1  UNL1        0.1450
     21 C         141.9895  141.0779  160.4392 C.3     1  UNL1        0.0294
     22 C         142.3479  142.5238  160.6148 C.3     1  UNL1        0.0730
     23 N         141.7812  143.3027  161.7647 N.3     1  UNL1       -0.2726
     24 C         141.9077  144.7825  161.9748 C.3     1  UNL1        0.0721
     25 C         141.1931  145.1328  163.2463 C.3     1  UNL1        0.0190
     26 C         140.6249  143.8695  163.8219 C.3     1  UNL1        0.0201
     27 C         140.0019  144.5120  165.0257 C.3     1  UNL1        0.0061
     28 C         139.8753  143.0323  164.8155 C.3     1  UNL1        0.0237
     29 C         140.9884  142.7385  162.9062 C.3     1  UNL1        0.0724
     30 C         139.3695  141.6945  165.2677 C.ar    1  UNL1       -0.0225
     31 C         139.6207  141.2336  166.6729 C.ar    1  UNL1       -0.0043
     32 C         139.1149  139.8958  167.1251 C.ar    1  UNL1        0.0035
     33 C         138.3579  139.0190  166.1722 C.ar    1  UNL1        0.0714
     34 C         138.1067  139.4799  164.7670 C.ar    1  UNL1        0.0035
     35 C         138.6125  140.8177  164.3148 C.ar    1  UNL1       -0.0043
     36 C         137.8520  137.6813  166.6244 C.3     1  UNL1        0.4186
     37 F         137.3462  136.3435  167.0767 F       1  UNL1       -0.1659
     38 F         138.5717  137.0238  165.4844 F       1  UNL1       -0.1659
     39 F         137.1324  138.3388  167.7645 F       1  UNL1       -0.1659
@<TRIPOS>BOND
     1     3     4    1
     2     4     5   ar
     3     5     2    1
     4     2     1    1
     5     1    21    1
     6    21    22    1
     7    22    23    1
     8    23    24    1
     9    24    25    1
    10    26    25    1
    11    26    27    1
    12    27    28    1
    13    28    30    1
    14    30    31   ar
    15    31    32   ar
    16    32    33   ar
    17    33    36    1
    18    36    37    1
    19    36    38    1
    20    36    39    1
    21    33    34   ar
    22    34    35   ar
    23    26    29    1
    24     5     6   ar
    25     6     7   ar
    26     7     8   ar
    27     8     9    1
    28     9    10   ar
    29    10    11   ar
    30    11    12   ar
    31    12    15    1
    32    15    16    1
    33    16    17   am
    34    16    18    2
    35    12    13   ar
    36    13    14   ar
    37     8     4   ar
    38    14     9   ar
    39    29    23    1
    40    28    26    1
    41    35    30   ar
    42    17    19    1
    43    17    20    1
@<TRIPOS>MOLECULE
*****
 39 43 0 0 0
SMALL
GASTEIGER

@<TRIPOS>ATOM
      1 C         140.5832  144.9807  159.7175 C.3     1  UNL1        0.0666
      2 S         140.0000  145.4975  160.9992 S.3     1  UNL1       -0.0756
      3 C         142.0702  145.3514  163.5177 C.3     1  UNL1        0.1340
      4 N         140.8314  144.5233  163.3454 N.ar    1  UNL1       -0.2884
      5 C         139.8799  144.5904  162.1878 C.ar    1  UNL1        0.1932
      6 N         138.7871  143.5912  162.4275 N.ar    1  UNL1       -0.1221
      7 N         139.0632  142.9066  163.7332 N.ar    1  UNL1       -0.1282
      8 C         140.3267  143.4826  164.3006 C.ar    1  UNL1        0.1668
      9 C         140.9721  143.0873  165.5957 C.ar    1  UNL1        0.0359
     10 C         140.1752  143.1030  166.8664 C.ar    1  UNL1        0.0027
     11 C         140.8206  142.7078  168.1614 C.ar    1  UNL1       -0.0037
     12 C         142.2631  142.2968  168.1857 C.ar    1  UNL1       -0.0131
     13 C         143.0600  142.2811  166.9151 C.ar    1  UNL1       -0.0037
     14 C         142.4145  142.6764  165.6200 C.ar    1  UNL1        0.0027
     15 C         142.9085  141.9015  169.4808 C.3     1  UNL1        0.1111
     16 C         142.5864  142.6519  170.7390 C.2     1  UNL1        0.2238
     17 N         143.3766  143.8725  171.1075 N.am    1  UNL1       -0.3285
     18 O         141.4741  142.1819  171.6288 O.2     1  UNL1       -0.2750
     19 H         144.1067  144.1811  170.5235 H       1  UNL1        0.1450
     20 H         143.1652  144.3650  171.9333 H       1  UNL1        0.1450
     21 C         141.1058  143.5766  159.6436 C.3     1  UNL1        0.0294
     22 C         142.5036  143.2718  160.0943 C.3     1  UNL1        0.0730
     23 N         142.9209  141.8513  160.3355 N.3     1  UNL1       -0.2726
     24 C         143.8277  141.0380  159.4601 C.3     1  UNL1        0.0721
     25 C         143.9718  139.6788  160.0780 C.3     1  UNL1        0.0190
     26 C         143.1541  139.6521  161.3353 C.3     1  UNL1        0.0201
     27 C         143.4836  138.2366  161.7065 C.3     1  UNL1        0.0061
     28 C         142.5767  139.0499  162.5819 C.3     1  UNL1        0.0237
     29 C         142.5045  140.9947  161.4944 C.3     1  UNL1        0.0724
     30 C         141.7199  139.1717  163.8070 C.ar    1  UNL1       -0.0225
     31 C         142.3331  139.0290  165.1684 C.ar    1  UNL1       -0.0043
     32 C         141.4763  139.1509  166.3935 C.ar    1  UNL1        0.0035
     33 C         140.0061  139.4155  166.2572 C.ar    1  UNL1        0.0714
     34 C         139.3928  139.5583  164.8957 C.ar    1  UNL1        0.0035
     35 C         140.2497  139.4364  163.6706 C.ar    1  UNL1       -0.0043
     36 C         139.1492  139.5374  167.4823 C.3     1  UNL1        0.4186
     37 F         138.2923  139.6593  168.7074 F       1  UNL1       -0.1659
     38 F         140.3801  139.5919  168.3378 F       1  UNL1       -0.1659
     39 F         137.9184  139.4828  166.6268 F       1  UNL1       -0.1659
@<TRIPOS>BOND
     1     3     4    1
     2     4     5   ar
     3     5     2    1
     4     2     1    1
     5     1    21    1
     6    21    22    1
     7    22    23    1
     8    23    24    1
     9    24    25    1
    10    26    25    1
    11    26    27    1
    12    27    28    1
    13    28    30    1
    14    30    31   ar
    15    31    32   ar
    16    32    33   ar
    17    33    36    1
    18    36    37    1
    19    36    38    1
    20    36    39    1
    21    33    34   ar
    22    34    35   ar
    23    26    29    1
    24     5     6   ar
    25     6     7   ar
    26     7     8   ar
    27     8     9    1
    28     9    10   ar
    29    10    11   ar
    30    11    12   ar
    31    12    15    1
    32    15    16    1
    33    16    17   am
    34    16    18    2
    35    12    13   ar
    36    13    14   ar
    37     8     4   ar
    38    14     9   ar
    39    29    23    1
    40    28    26    1
    41    35    30   ar
    42    17    19    1
    43    17    20    1
@<TRIPOS>MOLECULE
*****
 39 43 0 0 0
SMALL
GASTEIGER

@<TRIPOS>ATOM
      1 C         143.5832  142.1738  159.7863 C.3     1  UNL1        0.0666
      2 S         144.1627  142.5948  161.1042 S.3     1  UNL1       -0.0756
      3 C         143.0941  143.4716  164.0604 C.3     1  UNL1        0.1340
      4 N         143.5476  142.0996  163.6580 N.ar    1  UNL1       -0.2884
      5 C         144.0388  141.6966  162.2992 C.ar    1  UNL1        0.1932
      6 N         144.3844  140.2377  162.3451 N.ar    1  UNL1       -0.1221
      7 N         144.1068  139.7390  163.7322 N.ar    1  UNL1       -0.1282
      8 C         143.5896  140.8897  164.5437 C.ar    1  UNL1        0.1668
      9 C         143.1855  140.8394  165.9874 C.ar    1  UNL1        0.0359
     10 C         142.8515  139.5245  166.6273 C.ar    1  UNL1        0.0027
     11 C         142.4474  139.4742  168.0710 C.ar    1  UNL1       -0.0037
     12 C         142.3772  140.7388  168.8746 C.ar    1  UNL1       -0.0131
     13 C         142.7111  142.0537  168.2347 C.ar    1  UNL1       -0.0037
     14 C         143.1153  142.1040  166.7910 C.ar    1  UNL1        0.0027
     15 C         141.9730  140.6885  170.3183 C.3     1  UNL1        0.1111
     16 C         140.5207  140.7213  170.6921 C.2     1  UNL1        0.2238
     17 N         139.8365  139.4686  171.1533 N.am    1  UNL1       -0.3285
     18 O         139.7526  142.0066  170.6049 O.2     1  UNL1       -0.2750
     19 H         140.3407  138.6249  171.2105 H       1  UNL1        0.1450
     20 H         138.8834  139.4901  171.3986 H       1  UNL1        0.1450
     21 C         142.1121  141.9072  159.6647 C.3     1  UNL1        0.0294
     22 C         141.1549  143.0487  159.4899 C.3     1  UNL1        0.0730
     23 N         140.6839  143.8225  160.6855 N.3     1  UNL1       -0.2726
     24 C         140.6849  145.3159  160.8255 C.3     1  UNL1        0.0721
     25 C         140.1309  145.6551  162.1776 C.3     1  UNL1        0.0190
     26 C         139.7876  144.3712  162.8732 C.3     1  UNL1        0.0201
     27 C         139.2834  145.0065  164.1350 C.3     1  UNL1        0.0061
     28 C         139.2825  143.5131  163.9950 C.3     1  UNL1        0.0237
     29 C         140.1294  143.2386  161.9510 C.3     1  UNL1        0.0724
     30 C         138.9903  142.1554  164.5618 C.ar    1  UNL1       -0.0225
     31 C         139.5885  141.7463  165.8751 C.ar    1  UNL1       -0.0043
     32 C         139.2963  140.3886  166.4420 C.ar    1  UNL1        0.0035
     33 C         138.4059  139.4400  165.6955 C.ar    1  UNL1        0.0714
     34 C         137.8077  139.8491  164.3821 C.ar    1  UNL1        0.0035
     35 C         138.0998  141.2068  163.8153 C.ar    1  UNL1       -0.0043
     36 C         138.1137  138.0824  166.2623 C.3     1  UNL1        0.4186
     37 F         137.8216  136.7246  166.8291 F       1  UNL1       -0.1659
     38 F         137.1486  138.6954  167.2331 F       1  UNL1       -0.1659
     39 F         139.0789  137.4693  165.2914 F       1  UNL1       -0.1659
@<TRIPOS>BOND
     1     3     4    1
     2     4     5   ar
     3     5     2    1
     4     2     1    1
     5     1    21    1
     6    21    22    1
     7    22    23    1
     8    23    24    1
     9    24    25    1
    10    26    25    1
    11    26    27    1
    12    27    28    1
    13    28    30    1
    14    30    31   ar
    15    31    32   ar
    16    32    33   ar
    17    33    36    1
    18    36    37    1
    19    36    38    1
    20    36    39    1
    21    33    34   ar
    22    34    35   ar
    23    26    29    1
    24     5     6   ar
    25     6     7   ar
    26     7     8   ar
    27     8     9    1
    28     9    10   ar
    29    10    11   ar
    30    11    12   ar
    31    12    15    1
    32    15    16    1
    33    16    17   am
    34    16    18    2
    35    12    13   ar
    36    13    14   ar
    37     8     4   ar
    38    14     9   ar
    39    29    23    1
    40    28    26    1
    41    35    30   ar
    42    17    19    1
    43    17    20    1
@<TRIPOS>MOLECULE
*****
 39 43 0 0 0
SMALL
GASTEIGER

@<TRIPOS>ATOM
      1 C         142.6919  138.5379  159.4009 C.3     1  UNL1        0.0666
      2 S         143.3784  138.0388  160.6376 S.3     1  UNL1       -0.0756
      3 C         142.0127  138.1073  163.6007 C.3     1  UNL1        0.1340
      4 N         143.0910  139.0249  163.1054 N.ar    1  UNL1       -0.2884
      5 C         143.7188  138.9934  161.7435 C.ar    1  UNL1        0.1932
      6 N         144.7467  140.0841  161.6815 N.ar    1  UNL1       -0.1221
      7 N         144.7542  140.7897  163.0051 N.ar    1  UNL1       -0.1282
      8 C         143.7310  140.1351  163.8852 C.ar    1  UNL1        0.1668
      9 C         143.4049  140.5227  165.2971 C.ar    1  UNL1        0.0359
     10 C         143.0889  139.4639  166.3116 C.ar    1  UNL1        0.0027
     11 C         142.7629  139.8515  167.7235 C.ar    1  UNL1       -0.0037
     12 C         142.7528  141.2980  168.1209 C.ar    1  UNL1       -0.0131
     13 C         143.0688  142.3567  167.1064 C.ar    1  UNL1       -0.0037
     14 C         143.3948  141.9691  165.6945 C.ar    1  UNL1        0.0027
     15 C         142.4268  141.6855  169.5328 C.3     1  UNL1        0.1111
     16 C         143.2964  142.6671  170.2610 C.2     1  UNL1        0.2238
     17 N         144.7721  142.7033  169.9948 N.am    1  UNL1       -0.3285
     18 O         142.6903  143.6126  171.2553 O.2     1  UNL1       -0.2750
     19 H         145.1700  142.0827  169.3422 H       1  UNL1        0.1450
     20 H         145.3429  143.3475  170.4728 H       1  UNL1        0.1450
     21 C         141.7445  139.6978  159.4852 C.3     1  UNL1        0.0294
     22 C         142.2627  141.1000  159.3617 C.3     1  UNL1        0.0730
     23 N         141.9761  142.1031  160.4395 N.3     1  UNL1       -0.2726
     24 C         142.3522  143.5550  160.4152 C.3     1  UNL1        0.0721
     25 C         141.8717  144.1797  161.6915 C.3     1  UNL1        0.0190
     26 C         141.1987  143.1138  162.5046 C.3     1  UNL1        0.0201
     27 C         140.8433  144.0000  163.6614 C.3     1  UNL1        0.0061
     28 C         140.4673  142.5481  163.6857 C.3     1  UNL1        0.0237
     29 C         141.2632  141.8304  161.7308 C.3     1  UNL1        0.0724
     30 C         139.8280  141.3833  164.3817 C.ar    1  UNL1       -0.0225
     31 C         139.8757  141.2851  165.8777 C.ar    1  UNL1       -0.0043
     32 C         139.2364  140.1202  166.5736 C.ar    1  UNL1        0.0035
     33 C         138.5493  139.0536  165.7735 C.ar    1  UNL1        0.0714
     34 C         138.5015  139.1518  164.2775 C.ar    1  UNL1        0.0035
     35 C         139.1409  140.3167  163.5816 C.ar    1  UNL1       -0.0043
     36 C         137.9099  137.8888  166.4695 C.3     1  UNL1        0.4186
     37 F         137.2706  136.7238  167.1654 F       1  UNL1       -0.1659
     38 F         137.3499  138.8160  167.5070 F       1  UNL1       -0.1659
     39 F         138.4699  136.9615  165.4319 F       1  UNL1       -0.1659
@<TRIPOS>BOND
     1     3     4    1
     2     4     5   ar
     3     5     2    1
     4     2     1    1
     5     1    21    1
     6    21    22    1
     7    22    23    1
     8    23    24    1
     9    24    25    1
    10    26    25    1
    11    26    27    1
    12    27    28    1
    13    28    30    1
    14    30    31   ar
    15    31    32   ar
    16    32    33   ar
    17    33    36    1
    18    36    37    1
    19    36    38    1
    20    36    39    1
    21    33    34   ar
    22    34    35   ar
    23    26    29    1
    24     5     6   ar
    25     6     7   ar
    26     7     8   ar
    27     8     9    1
    28     9    10   ar
    29    10    11   ar
    30    11    12   ar
    31    12    15    1
    32    15    16    1
    33    16    17   am
    34    16    18    2
    35    12    13   ar
    36    13    14   ar
    37     8     4   ar
    38    14     9   ar
    39    29    23    1
    40    28    26    1
    41    35    30   ar
    42    17    19    1
    43    17    20    1
@<TRIPOS>MOLECULE
*****
 39 43 0 0 0
SMALL
GASTEIGER

@<TRIPOS>ATOM
      1 C         138.9519  141.7009  159.6859 C.3     1  UNL1        0.0666
      2 S         138.5514  142.7876  160.6391 S.3     1  UNL1       -0.0756
      3 C         138.9562  141.3251  163.5283 C.3     1  UNL1        0.1340
      4 N         139.6809  142.5483  163.0500 N.ar    1  UNL1       -0.2884
      5 C         139.4948  143.2205  161.7220 C.ar    1  UNL1        0.1932
      6 N         140.4178  144.4016  161.6670 N.ar    1  UNL1       -0.1221
      7 N         141.1743  144.4594  162.9610 N.ar    1  UNL1       -0.1282
      8 C         140.7189  143.3140  163.8158 C.ar    1  UNL1        0.1668
      9 C         141.2144  142.9910  165.1942 C.ar    1  UNL1        0.0359
     10 C         142.6624  142.6670  165.4139 C.ar    1  UNL1        0.0027
     11 C         143.1580  142.3440  166.7923 C.ar    1  UNL1       -0.0037
     12 C         142.2054  142.3450  167.9511 C.ar    1  UNL1       -0.0131
     13 C         140.7573  142.6691  167.7314 C.ar    1  UNL1       -0.0037
     14 C         140.2619  142.9920  166.3529 C.ar    1  UNL1        0.0027
     15 C         142.7009  142.0220  169.3296 C.3     1  UNL1        0.1111
     16 C         142.3404  142.9102  170.4834 C.2     1  UNL1        0.2238
     17 N         143.3626  143.8458  171.0575 N.am    1  UNL1       -0.3285
     18 O         140.9578  142.8626  171.0631 O.2     1  UNL1       -0.2750
     19 H         144.2701  143.8771  170.6771 H       1  UNL1        0.1450
     20 H         143.1260  144.4287  171.8148 H       1  UNL1        0.1450
     21 C         140.3495  141.6570  159.1429 C.3     1  UNL1        0.0294
     22 C         141.1066  140.3623  159.1241 C.3     1  UNL1        0.0730
     23 N         142.1028  140.0602  160.2041 N.3     1  UNL1       -0.2726
     24 C         143.5952  140.1337  160.0726 C.3     1  UNL1        0.0721
     25 C         144.1961  139.7505  161.3925 C.3     1  UNL1        0.0190
     26 C         143.0751  139.4401  162.3396 C.3     1  UNL1        0.0201
     27 C         143.9486  139.1072  163.5127 C.3     1  UNL1        0.0061
     28 C         142.4562  139.0337  163.6441 C.3     1  UNL1        0.0237
     29 C         141.7814  139.6315  161.6051 C.3     1  UNL1        0.0724
     30 C         141.2373  138.7566  164.4732 C.ar    1  UNL1       -0.0225
     31 C         141.0319  139.4812  165.7704 C.ar    1  UNL1       -0.0043
     32 C         139.8130  139.2041  166.5995 C.ar    1  UNL1        0.0035
     33 C         138.7993  138.2025  166.1312 C.ar    1  UNL1        0.0714
     34 C         139.0047  137.4779  164.8340 C.ar    1  UNL1        0.0035
     35 C         140.2236  137.7550  164.0049 C.ar    1  UNL1       -0.0043
     36 C         137.5804  137.9254  166.9602 C.3     1  UNL1        0.4186
     37 F         136.3613  137.6483  167.7893 F       1  UNL1       -0.1659
     38 F         137.5999  136.4945  166.5108 F       1  UNL1       -0.1659
     39 F         137.5608  139.3563  167.4097 F       1  UNL1       -0.1659
@<TRIPOS>BOND
     1     3     4    1
     2     4     5   ar
     3     5     2    1
     4     2     1    1
     5     1    21    1
     6    21    22    1
     7    22    23    1
     8    23    24    1
     9    24    25    1
    10    26    25    1
    11    26    27    1
    12    27    28    1
    13    28    30    1
    14    30    31   ar
    15    31    32   ar
    16    32    33   ar
    17    33    36    1
    18    36    37    1
    19    36    38    1
    20    36    39    1
    21    33    34   ar
    22    34    35   ar
    23    26    29    1
    24     5     6   ar
    25     6     7   ar
    26     7     8   ar
    27     8     9    1
    28     9    10   ar
    29    10    11   ar
    30    11    12   ar
    31    12    15    1
    32    15    16    1
    33    16    17   am
    34    16    18    2
    35    12    13   ar
    36    13    14   ar
    37     8     4   ar
    38    14     9   ar
    39    29    23    1
    40    28    26    1
    41    35    30   ar
    42    17    19    1
    43    17    20    1
@<TRIPOS>MOLECULE
*****
 39 43 0 0 0
SMALL
GASTEIGER

@<TRIPOS>ATOM
      1 C         140.6102  143.6045  159.6912 C.3     1  UNL1        0.0666
      2 S         140.2780  144.2358  161.0106 S.3     1  UNL1       -0.0756
      3 C         141.7634  145.0135  163.8104 C.3     1  UNL1        0.1340
      4 N         140.9725  143.7661  163.5488 N.ar    1  UNL1       -0.2884
      5 C         140.2898  143.4086  162.2619 C.ar    1  UNL1        0.1932
      6 N         139.6207  142.0787  162.4459 N.ar    1  UNL1       -0.1221
      7 N         139.8900  141.6143  163.8465 N.ar    1  UNL1       -0.1282
      8 C         140.7255  142.6571  164.5282 C.ar    1  UNL1        0.1668
      9 C         141.2259  142.6008  165.9411 C.ar    1  UNL1        0.0359
     10 C         140.2624  142.7277  167.0837 C.ar    1  UNL1        0.0027
     11 C         140.7629  142.6714  168.4966 C.ar    1  UNL1       -0.0037
     12 C         142.2270  142.4882  168.7669 C.ar    1  UNL1       -0.0131
     13 C         143.1905  142.3613  167.6243 C.ar    1  UNL1       -0.0037
     14 C         142.6899  142.4176  166.2114 C.ar    1  UNL1        0.0027
     15 C         142.7275  142.4319  170.1798 C.3     1  UNL1        0.1111
     16 C         142.0470  141.5471  171.1818 C.2     1  UNL1        0.2238
     17 N         142.5709  140.1656  171.4405 N.am    1  UNL1       -0.3285
     18 O         140.8426  142.0438  171.9252 O.2     1  UNL1       -0.2750
     19 H         143.3614  139.8396  170.9526 H       1  UNL1        0.1450
     20 H         142.1243  139.5849  172.0982 H       1  UNL1        0.1450
     21 C         139.5285  142.9644  158.8725 C.3     1  UNL1        0.0294
     22 C         139.1309  141.5422  159.1354 C.3     1  UNL1        0.0730
     23 N         140.1422  140.4430  158.9977 N.3     1  UNL1       -0.2726
     24 C         140.5672  139.7916  157.7151 C.3     1  UNL1        0.0721
     25 C         141.5937  138.7482  158.0432 C.3     1  UNL1        0.0190
     26 C         141.8031  138.7548  159.5285 C.3     1  UNL1        0.0201
     27 C         142.8308  137.6623  159.5468 C.3     1  UNL1        0.0061
     28 C         142.4058  138.3137  160.8293 C.3     1  UNL1        0.0237
     29 C         140.9060  139.8023  160.1184 C.3     1  UNL1        0.0724
     30 C         142.5084  138.4352  162.3209 C.ar    1  UNL1       -0.0225
     31 C         141.4989  137.7579  163.1997 C.ar    1  UNL1       -0.0043
     32 C         141.6015  137.8794  164.6912 C.ar    1  UNL1        0.0035
     33 C         142.7135  138.6782  165.3039 C.ar    1  UNL1        0.0714
     34 C         143.7229  139.3555  164.4251 C.ar    1  UNL1        0.0035
     35 C         143.6204  139.2340  162.9336 C.ar    1  UNL1       -0.0043
     36 C         142.8160  138.7996  166.7955 C.3     1  UNL1        0.4186
     37 F         142.9186  138.9211  168.2871 F       1  UNL1       -0.1659
     38 F         141.4410  139.3971  166.8414 F       1  UNL1       -0.1659
     39 F         144.1911  138.2022  166.7496 F       1  UNL1       -0.1659
@<TRIPOS>BOND
     1     3     4    1
     2     4     5   ar
     3     5     2    1
     4     2     1    1
     5     1    21    1
     6    21    22    1
     7    22    23    1
     8    23    24    1
     9    24    25    1
    10    26    25    1
    11    26    27    1
    12    27    28    1
    13    28    30    1
    14    30    31   ar
    15    31    32   ar
    16    32    33   ar
    17    33    36    1
    18    36    37    1
    19    36    38    1
    20    36    39    1
    21    33    34   ar
    22    34    35   ar
    23    26    29    1
    24     5     6   ar
    25     6     7   ar
    26     7     8   ar
    27     8     9    1
    28     9    10   ar
    29    10    11   ar
    30    11    12   ar
    31    12    15    1
    32    15    16    1
    33    16    17   am
    34    16    18    2
    35    12    13   ar
    36    13    14   ar
    37     8     4   ar
    38    14     9   ar
    39    29    23    1
    40    28    26    1
    41    35    30   ar
    42    17    19    1
    43    17    20    1
@<TRIPOS>MOLECULE
*****
 39 43 0 0 0
SMALL
GASTEIGER

@<TRIPOS>ATOM
      1 C         138.4061  139.4118  160.0167 C.3     1  UNL1        0.0666
      2 S         137.6660  139.2356  161.3094 S.3     1  UNL1       -0.0756
      3 C         137.8209  141.6410  163.5094 C.3     1  UNL1        0.1340
      4 N         138.4908  140.3032  163.6170 N.ar    1  UNL1       -0.2884
      5 C         138.4196  139.1976  162.6058 C.ar    1  UNL1        0.1932
      6 N         139.2343  138.0472  163.1186 N.ar    1  UNL1       -0.1221
      7 N         139.8090  138.4418  164.4468 N.ar    1  UNL1       -0.1282
      8 C         139.3495  139.8361  164.7549 C.ar    1  UNL1        0.1668
      9 C         139.6891  140.6248  165.9848 C.ar    1  UNL1        0.0359
     10 C         140.1258  142.0546  165.8620 C.ar    1  UNL1        0.0027
     11 C         140.4654  142.8433  167.0919 C.ar    1  UNL1       -0.0037
     12 C         140.3683  142.2021  168.4445 C.ar    1  UNL1       -0.0131
     13 C         139.9316  140.7724  168.5673 C.ar    1  UNL1       -0.0037
     14 C         139.5920  139.9837  167.3373 C.ar    1  UNL1        0.0027
     15 C         140.7079  142.9908  169.6744 C.3     1  UNL1        0.1111
     16 C         140.0722  142.6430  170.9878 C.2     1  UNL1        0.2238
     17 N         138.8472  143.3775  171.4460 N.am    1  UNL1       -0.3285
     18 O         140.6614  141.5607  171.8430 O.2     1  UNL1       -0.2750
     19 H         138.4605  144.0879  170.8847 H       1  UNL1        0.1450
     20 H         138.4300  143.1492  172.3080 H       1  UNL1        0.1450
     21 C         139.0857  140.7141  159.7130 C.3     1  UNL1        0.0294
     22 C         140.1581  140.7743  158.6660 C.3     1  UNL1        0.0730
     23 N         141.4892  141.3852  158.9900 N.3     1  UNL1       -0.2726
     24 C         142.3236  142.2219  158.0661 C.3     1  UNL1        0.0721
     25 C         143.5697  142.6205  158.8000 C.3     1  UNL1        0.0190
     26 C         143.5053  142.0301  160.1774 C.3     1  UNL1        0.0201
     27 C         144.8223  142.5760  160.6437 C.3     1  UNL1        0.0061
     28 C         143.9879  141.7393  161.5676 C.3     1  UNL1        0.0237
     29 C         142.2195  141.2667  160.2949 C.3     1  UNL1        0.0724
     30 C         143.7847  141.0883  162.9036 C.ar    1  UNL1       -0.0225
     31 C         143.7620  139.5925  163.0134 C.ar    1  UNL1       -0.0043
     32 C         143.5588  138.9415  164.3494 C.ar    1  UNL1        0.0035
     33 C         143.3784  139.7864  165.5756 C.ar    1  UNL1        0.0714
     34 C         143.4011  141.2822  165.4658 C.ar    1  UNL1        0.0035
     35 C         143.6043  141.9332  164.1298 C.ar    1  UNL1       -0.0043
     36 C         143.1752  139.1354  166.9116 C.3     1  UNL1        0.4186
     37 F         142.9720  138.4844  168.2477 F       1  UNL1       -0.1659
     38 F         143.3394  137.7854  166.2788 F       1  UNL1       -0.1659
     39 F         143.0110  140.4854  167.5444 F       1  UNL1       -0.1659
@<TRIPOS>BOND
     1     3     4    1
     2     4     5   ar
     3     5     2    1
     4     2     1    1
     5     1    21    1
     6    21    22    1
     7    22    23    1
     8    23    24    1
     9    24    25    1
    10    26    25    1
    11    26    27    1
    12    27    28    1
    13    28    30    1
    14    30    31   ar
    15    31    32   ar
    16    32    33   ar
    17    33    36    1
    18    36    37    1
    19    36    38    1
    20    36    39    1
    21    33    34   ar
    22    34    35   ar
    23    26    29    1
    24     5     6   ar
    25     6     7   ar
    26     7     8   ar
    27     8     9    1
    28     9    10   ar
    29    10    11   ar
    30    11    12   ar
    31    12    15    1
    32    15    16    1
    33    16    17   am
    34    16    18    2
    35    12    13   ar
    36    13    14   ar
    37     8     4   ar
    38    14     9   ar
    39    29    23    1
    40    28    26    1
    41    35    30   ar
    42    17    19    1
    43    17    20    1
@<TRIPOS>MOLECULE
*****
 39 43 0 0 0
SMALL
GASTEIGER

@<TRIPOS>ATOM
      1 C         141.7589  143.0221  158.2771 C.3     1  UNL1        0.0666
      2 S         142.0643  141.5600  158.4141 S.3     1  UNL1       -0.0756
      3 C         143.5699  141.7210  161.3049 C.3     1  UNL1        0.1340
      4 N         142.3569  140.8978  160.9872 N.ar    1  UNL1       -0.2884
      5 C         141.6648  140.8238  159.6585 C.ar    1  UNL1        0.1932
      6 N         140.5032  139.8843  159.7925 N.ar    1  UNL1       -0.1221
      7 N         140.4773  139.3776  161.2041 N.ar    1  UNL1       -0.1282
      8 C         141.6229  140.0040  161.9426 C.ar    1  UNL1        0.1668
      9 C         141.9731  139.7765  163.3833 C.ar    1  UNL1        0.0359
     10 C         141.6654  138.4591  164.0309 C.ar    1  UNL1        0.0027
     11 C         142.0155  138.2316  165.4717 C.ar    1  UNL1       -0.0037
     12 C         142.6735  139.3218  166.2646 C.ar    1  UNL1       -0.0131
     13 C         142.9812  140.6393  165.6170 C.ar    1  UNL1       -0.0037
     14 C         142.6310  140.8666  164.1762 C.ar    1  UNL1        0.0027
     15 C         143.0237  139.0943  167.7053 C.3     1  UNL1        0.1111
     16 C         142.3922  139.9378  168.7729 C.2     1  UNL1        0.2238
     17 N         143.1528  141.0839  169.3712 N.am    1  UNL1       -0.3285
     18 O         141.0000  139.6353  169.2422 O.2     1  UNL1       -0.2750
     19 H         144.0666  141.2825  169.0632 H       1  UNL1        0.1450
     20 H         142.7383  141.6375  170.0718 H       1  UNL1        0.1450
     21 C         140.3489  143.4746  158.0375 C.3     1  UNL1        0.0294
     22 C         139.3375  143.3949  159.1424 C.3     1  UNL1        0.0730
     23 N         139.6297  144.0220  160.4733 N.3     1  UNL1       -0.2726
     24 C         140.1085  145.4252  160.7007 C.3     1  UNL1        0.0721
     25 C         140.2691  145.6264  162.1784 C.3     1  UNL1        0.0190
     26 C         139.8894  144.3476  162.8643 C.3     1  UNL1        0.0201
     27 C         140.1403  144.8375  164.2597 C.3     1  UNL1        0.0061
     28 C         139.6614  143.4343  164.0323 C.3     1  UNL1        0.0237
     29 C         139.4942  143.3560  161.8105 C.3     1  UNL1        0.0724
     30 C         139.2533  142.0970  164.5753 C.ar    1  UNL1       -0.0225
     31 C         139.5985  141.7234  165.9864 C.ar    1  UNL1       -0.0043
     32 C         139.1903  140.3860  166.5294 C.ar    1  UNL1        0.0035
     33 C         138.4370  139.4223  165.6613 C.ar    1  UNL1        0.0714
     34 C         138.0918  139.7959  164.2501 C.ar    1  UNL1        0.0035
     35 C         138.5000  141.1332  163.7071 C.ar    1  UNL1       -0.0043
     36 C         138.0289  138.0849  166.2043 C.3     1  UNL1        0.4186
     37 F         137.6208  136.7474  166.7473 F       1  UNL1       -0.1659
     38 F         137.3054  138.7627  167.3299 F       1  UNL1       -0.1659
     39 F         138.7524  137.4071  165.0786 F       1  UNL1       -0.1659
@<TRIPOS>BOND
     1     3     4    1
     2     4     5   ar
     3     5     2    1
     4     2     1    1
     5     1    21    1
     6    21    22    1
     7    22    23    1
     8    23    24    1
     9    24    25    1
    10    26    25    1
    11    26    27    1
    12    27    28    1
    13    28    30    1
    14    30    31   ar
    15    31    32   ar
    16    32    33   ar
    17    33    36    1
    18    36    37    1
    19    36    38    1
    20    36    39    1
    21    33    34   ar
    22    34    35   ar
    23    26    29    1
    24     5     6   ar
    25     6     7   ar
    26     7     8   ar
    27     8     9    1
    28     9    10   ar
    29    10    11   ar
    30    11    12   ar
    31    12    15    1
    32    15    16    1
    33    16    17   am
    34    16    18    2
    35    12    13   ar
    36    13    14   ar
    37     8     4   ar
    38    14     9   ar
    39    29    23    1
    40    28    26    1
    41    35    30   ar
    42    17    19    1
    43    17    20    1
