@<TRIPOS>MOLECULE
*****
 36 39 0 0 0
SMALL
GASTEIGER

@<TRIPOS>ATOM
      1 C         138.6983  141.6796  158.8597 C.ar    1  UNL1        0.0957
      2 C         140.0321  141.9931  158.2493 C.ar    1  UNL1        0.1191
      3 N         140.2583  141.7661  156.7839 N.ar    1  UNL1       -0.2223
      4 C         139.1507  141.2256  155.9289 C.ar    1  UNL1        0.1784
      5 N         139.0789  140.9010  154.4662 N.ar    1  UNL1       -0.2236
      6 C         137.7007  140.3869  154.1726 C.ar    1  UNL1        0.1066
      7 C         136.9207  140.3937  155.4538 C.ar    1  UNL1        0.0910
      8 C         137.8169  140.9121  156.5393 C.ar    1  UNL1        0.0988
      9 N         137.5907  141.1390  158.0047 N.ar    1  UNL1       -0.3481
     10 H         136.7152  140.9333  158.4053 H       1  UNL1        0.1661
     11 C         138.5735  138.4542  165.2011 C.3     1  UNL1        0.0311
     12 C         138.5661  139.2577  163.9344 C.ar    1  UNL1       -0.0204
     13 C         138.8623  138.5929  162.6229 C.ar    1  UNL1       -0.0041
     14 C         138.8549  139.3964  161.3562 C.ar    1  UNL1        0.0028
     15 C         138.5513  140.8646  161.4011 C.ar    1  UNL1        0.0381
     16 C         138.4721  141.9065  160.3250 C.ar    1  UNL1        0.1193
     17 N         138.1269  143.2153  160.9716 N.ar    1  UNL1       -0.1678
     18 N         137.9928  142.9823  162.4472 N.ar    1  UNL1       -0.2508
     19 C         138.2551  141.5294  162.7127 C.ar    1  UNL1        0.0791
     20 C         138.2625  140.7259  163.9794 C.ar    1  UNL1        0.0145
     21 C         137.6556  144.0198  163.4767 C.3     1  UNL1        0.1289
     22 C         138.7434  144.6331  164.3077 C.3     1  UNL1        0.0437
     23 C         140.1650  144.5917  163.8311 C.3     1  UNL1        0.0742
     24 N         140.5128  145.1010  162.4637 N.3     1  UNL1       -0.2703
     25 C         139.8154  146.3098  161.9138 C.3     1  UNL1        0.0897
     26 C         141.5580  144.4014  161.6462 C.3     1  UNL1        0.0897
     27 C         135.4950  139.9586  155.6203 C.2     1  UNL1        0.2488
     28 O         135.0471  138.6333  155.0789 O.2     1  UNL1       -0.2700
     29 N         134.5169  140.8488  156.3283 N.am    1  UNL1       -0.3015
     30 H         134.8108  141.7186  156.6836 H       1  UNL1        0.1497
     31 C         133.0911  140.4136  156.4947 C.3     1  UNL1        0.0841
     32 C         132.6920  141.2774  155.3352 C.3     1  UNL1        0.0222
     33 C         133.4901  139.5497  157.6543 C.3     1  UNL1        0.0222
     34 C         131.6653  139.9784  156.6612 C.3     1  UNL1        0.1549
     35 O         131.1411  139.6319  158.0232 O.3     1  UNL1       -0.3803
     36 H         131.5923  138.8384  158.3511 H       1  UNL1        0.2105
@<TRIPOS>BOND
     1    11    12    1
     2    12    13   ar
     3    13    14   ar
     4    14    15   ar
     5    15    16   ar
     6    16     1    1
     7     1     2   ar
     8     2     3   ar
     9     3     4   ar
    10     4     5   ar
    11     5     6   ar
    12     6     7   ar
    13     7    27    1
    14    27    28    2
    15    27    29   am
    16    29    31    1
    17    31    32    1
    18    31    33    1
    19    31    34    1
    20    34    35    1
    21     7     8   ar
    22     8     9   ar
    23    16    17   ar
    24    17    18   ar
    25    18    21    1
    26    21    22    1
    27    22    23    1
    28    23    24    1
    29    24    25    1
    30    24    26    1
    31    18    19   ar
    32    19    20   ar
    33    20    12   ar
    34    19    15   ar
    35     9     1   ar
    36     8     4    1
    37    29    30    1
    38    35    36    1
    39     9    10    1
@<TRIPOS>MOLECULE
*****
 36 39 0 0 0
SMALL
GASTEIGER

@<TRIPOS>ATOM
      1 C         141.8477  139.8949  161.2824 C.ar    1  UNL1        0.0957
      2 C         143.2197  139.2885  161.2815 C.ar    1  UNL1        0.1191
      3 N         143.7858  138.7159  160.0160 N.ar    1  UNL1       -0.2223
      4 C         142.9801  138.7496  158.7513 C.ar    1  UNL1        0.1784
      5 N         143.2724  138.2663  157.3617 N.ar    1  UNL1       -0.2236
      6 C         142.0812  138.5740  156.5037 C.ar    1  UNL1        0.1066
      7 C         141.0526  139.2474  157.3630 C.ar    1  UNL1        0.0910
      8 C         141.6081  139.3560  158.7521 C.ar    1  UNL1        0.0988
      9 N         141.0420  139.9286  160.0176 N.ar    1  UNL1       -0.3481
     10 H         140.1415  140.3266  160.0181 H       1  UNL1        0.1661
     11 C         137.7089  138.4276  166.8814 C.3     1  UNL1        0.0311
     12 C         138.5995  138.8700  165.7584 C.ar    1  UNL1       -0.0204
     13 C         138.9210  137.9246  164.6391 C.ar    1  UNL1       -0.0041
     14 C         139.8116  138.3670  163.5161 C.ar    1  UNL1        0.0028
     15 C         140.3807  139.7548  163.5124 C.ar    1  UNL1        0.0381
     16 C         141.2816  140.4676  162.5479 C.ar    1  UNL1        0.1193
     17 N         141.5169  141.8536  163.0710 N.ar    1  UNL1       -0.1678
     18 N         140.7614  141.9974  164.3589 N.ar    1  UNL1       -0.2508
     19 C         140.0592  140.7002  164.6316 C.ar    1  UNL1        0.0791
     20 C         139.1686  140.2578  165.7546 C.ar    1  UNL1        0.0145
     21 C         140.7161  143.2230  165.2224 C.3     1  UNL1        0.1289
     22 C         139.3960  143.8332  165.5898 C.3     1  UNL1        0.0437
     23 C         138.7531  144.8355  164.6777 C.3     1  UNL1        0.0742
     24 N         138.7294  144.5955  163.1972 N.3     1  UNL1       -0.2703
     25 C         137.9182  143.4668  162.6333 C.3     1  UNL1        0.0897
     26 C         139.5168  145.4842  162.2806 C.3     1  UNL1        0.0897
     27 C         139.7050  139.7280  156.9123 C.2     1  UNL1        0.2488
     28 O         138.6388  138.7377  156.5482 O.2     1  UNL1       -0.2700
     29 N         139.4236  141.1988  156.8257 N.am    1  UNL1       -0.3015
     30 H         140.1234  141.8488  157.0646 H       1  UNL1        0.1497
     31 C         138.0760  141.6793  156.3750 C.3     1  UNL1        0.0841
     32 C         138.5620  141.7116  154.9562 C.3     1  UNL1        0.0222
     33 C         137.5900  141.6470  157.7937 C.3     1  UNL1        0.0222
     34 C         136.7285  142.1598  155.9243 C.3     1  UNL1        0.1549
     35 O         136.3882  143.6187  156.0009 O.3     1  UNL1       -0.3803
     36 H         136.3566  143.8949  156.9302 H       1  UNL1        0.2105
@<TRIPOS>BOND
     1    11    12    1
     2    12    13   ar
     3    13    14   ar
     4    14    15   ar
     5    15    16   ar
     6    16     1    1
     7     1     2   ar
     8     2     3   ar
     9     3     4   ar
    10     4     5   ar
    11     5     6   ar
    12     6     7   ar
    13     7    27    1
    14    27    28    2
    15    27    29   am
    16    29    31    1
    17    31    32    1
    18    31    33    1
    19    31    34    1
    20    34    35    1
    21     7     8   ar
    22     8     9   ar
    23    16    17   ar
    24    17    18   ar
    25    18    21    1
    26    21    22    1
    27    22    23    1
    28    23    24    1
    29    24    25    1
    30    24    26    1
    31    18    19   ar
    32    19    20   ar
    33    20    12   ar
    34    19    15   ar
    35     9     1   ar
    36     8     4    1
    37    29    30    1
    38    35    36    1
    39     9    10    1
@<TRIPOS>MOLECULE
*****
 36 39 0 0 0
SMALL
GASTEIGER

@<TRIPOS>ATOM
      1 C         141.9397  140.3683  162.0559 C.ar    1  UNL1        0.0957
      2 C         142.9157  139.2298  162.0873 C.ar    1  UNL1        0.1191
      3 N         143.6991  138.8794  160.8571 N.ar    1  UNL1       -0.2223
      4 C         143.5066  139.6675  159.5955 C.ar    1  UNL1        0.1784
      5 N         144.1326  139.5560  158.2369 N.ar    1  UNL1       -0.2236
      6 C         143.5435  140.6257  157.3659 C.ar    1  UNL1        0.1066
      7 C         142.5533  141.3983  158.1861 C.ar    1  UNL1        0.0910
      8 C         142.5305  140.8061  159.5641 C.ar    1  UNL1        0.0988
      9 N         141.7471  141.1565  160.7943 N.ar    1  UNL1       -0.3481
     10 H         141.1065  141.9038  160.7737 H       1  UNL1        0.1661
     11 C         137.4815  137.7491  166.9443 C.3     1  UNL1        0.0311
     12 C         138.4124  138.4288  165.9844 C.ar    1  UNL1       -0.0204
     13 C         138.9965  137.6614  164.8355 C.ar    1  UNL1       -0.0041
     14 C         139.9274  138.3411  163.8756 C.ar    1  UNL1        0.0028
     15 C         140.2742  139.7881  164.0645 C.ar    1  UNL1        0.0381
     16 C         141.1562  140.7188  163.2861 C.ar    1  UNL1        0.1193
     17 N         141.1173  142.0613  163.9540 N.ar    1  UNL1       -0.1678
     18 N         140.2112  141.9605  165.1451 N.ar    1  UNL1       -0.2508
     19 C         139.6901  140.5555  165.2134 C.ar    1  UNL1        0.0791
     20 C         138.7592  139.8758  166.1733 C.ar    1  UNL1        0.0145
     21 C         139.8836  143.0697  166.1002 C.3     1  UNL1        0.1289
     22 C         139.2926  144.3499  165.5885 C.3     1  UNL1        0.0437
     23 C         138.1536  144.3131  164.6132 C.3     1  UNL1        0.0742
     24 N         138.4290  144.2255  163.1413 N.3     1  UNL1       -0.2703
     25 C         139.1921  145.3192  162.4547 C.3     1  UNL1        0.0897
     26 C         137.9413  143.0441  162.3561 C.3     1  UNL1        0.0897
     27 C         141.7305  142.5592  157.7117 C.2     1  UNL1        0.2488
     28 O         140.7491  142.3752  156.5922 O.2     1  UNL1       -0.2700
     29 N         141.8890  143.9042  158.3566 N.am    1  UNL1       -0.3015
     30 H         142.5331  144.0250  159.0913 H       1  UNL1        0.1497
     31 C         141.0661  145.0651  157.8821 C.3     1  UNL1        0.0841
     32 C         139.9801  144.6893  158.8461 C.3     1  UNL1        0.0222
     33 C         142.1521  145.4410  156.9181 C.3     1  UNL1        0.0222
     34 C         140.2433  146.2260  157.4076 C.3     1  UNL1        0.1549
     35 O         140.6480  146.9779  156.1744 O.3     1  UNL1       -0.3803
     36 H         141.4909  147.4308  156.3339 H       1  UNL1        0.2105
@<TRIPOS>BOND
     1    11    12    1
     2    12    13   ar
     3    13    14   ar
     4    14    15   ar
     5    15    16   ar
     6    16     1    1
     7     1     2   ar
     8     2     3   ar
     9     3     4   ar
    10     4     5   ar
    11     5     6   ar
    12     6     7   ar
    13     7    27    1
    14    27    28    2
    15    27    29   am
    16    29    31    1
    17    31    32    1
    18    31    33    1
    19    31    34    1
    20    34    35    1
    21     7     8   ar
    22     8     9   ar
    23    16    17   ar
    24    17    18   ar
    25    18    21    1
    26    21    22    1
    27    22    23    1
    28    23    24    1
    29    24    25    1
    30    24    26    1
    31    18    19   ar
    32    19    20   ar
    33    20    12   ar
    34    19    15   ar
    35     9     1   ar
    36     8     4    1
    37    29    30    1
    38    35    36    1
    39     9    10    1
@<TRIPOS>MOLECULE
*****
 36 39 0 0 0
SMALL
GASTEIGER

@<TRIPOS>ATOM
      1 C         139.2881  142.9354  164.0801 C.ar    1  UNL1        0.0957
      2 C         138.4736  144.1766  164.2948 C.ar    1  UNL1        0.1191
      3 N         138.5513  145.3046  163.3091 N.ar    1  UNL1       -0.2223
      4 C         139.4435  145.1914  162.1086 C.ar    1  UNL1        0.1784
      5 N         139.7244  146.1321  160.9746 N.ar    1  UNL1       -0.2236
      6 C         140.7125  145.4724  160.0590 C.ar    1  UNL1        0.1066
      7 C         141.0423  144.1239  160.6271 C.ar    1  UNL1        0.0910
      8 C         140.2580  143.9502  161.8939 C.ar    1  UNL1        0.0988
      9 N         140.1803  142.8223  162.8796 N.ar    1  UNL1       -0.3481
     10 H         140.7149  142.0076  162.7387 H       1  UNL1        0.1661
     11 C         141.2543  140.8875  170.6048 C.3     1  UNL1        0.0311
     12 C         140.7744  141.1894  169.2161 C.ar    1  UNL1       -0.0204
     13 C         141.0966  142.5098  168.5817 C.ar    1  UNL1       -0.0041
     14 C         140.6167  142.8117  167.1929 C.ar    1  UNL1        0.0028
     15 C         139.8147  141.7930  166.4386 C.ar    1  UNL1        0.0381
     16 C         139.2103  141.8074  165.0658 C.ar    1  UNL1        0.1193
     17 N         138.5146  140.4959  164.8518 N.ar    1  UNL1       -0.1678
     18 N         138.6890  139.6708  166.0923 N.ar    1  UNL1       -0.2508
     19 C         139.4925  140.4726  167.0730 C.ar    1  UNL1        0.0791
     20 C         139.9724  140.1707  168.4618 C.ar    1  UNL1        0.0145
     21 C         138.1539  138.2871  166.3134 C.3     1  UNL1        0.1289
     22 C         138.6430  137.1497  165.4665 C.3     1  UNL1        0.0437
     23 C         139.9434  137.2692  164.7286 C.3     1  UNL1        0.0742
     24 N         139.9470  137.5706  163.2592 N.3     1  UNL1       -0.2703
     25 C         141.2448  137.6336  162.5097 C.3     1  UNL1        0.0897
     26 C         138.6528  137.8091  162.5393 C.3     1  UNL1        0.0897
     27 C         141.9899  143.1246  160.0328 C.2     1  UNL1        0.2488
     28 O         143.2630  143.5887  159.3894 O.2     1  UNL1       -0.2700
     29 N         141.6646  141.6611  160.0819 N.am    1  UNL1       -0.3015
     30 H         140.8290  141.3565  160.5042 H       1  UNL1        0.1497
     31 C         142.6123  140.6617  159.4876 C.3     1  UNL1        0.0841
     32 C         141.9203  140.7931  158.1632 C.3     1  UNL1        0.0222
     33 C         143.3043  140.5303  160.8119 C.3     1  UNL1        0.0222
     34 C         143.5600  139.6625  158.8932 C.3     1  UNL1        0.1549
     35 O         143.2571  138.1961  158.9830 O.3     1  UNL1       -0.3803
     36 H         143.2870  137.9161  159.9112 H       1  UNL1        0.2105
@<TRIPOS>BOND
     1    11    12    1
     2    12    13   ar
     3    13    14   ar
     4    14    15   ar
     5    15    16   ar
     6    16     1    1
     7     1     2   ar
     8     2     3   ar
     9     3     4   ar
    10     4     5   ar
    11     5     6   ar
    12     6     7   ar
    13     7    27    1
    14    27    28    2
    15    27    29   am
    16    29    31    1
    17    31    32    1
    18    31    33    1
    19    31    34    1
    20    34    35    1
    21     7     8   ar
    22     8     9   ar
    23    16    17   ar
    24    17    18   ar
    25    18    21    1
    26    21    22    1
    27    22    23    1
    28    23    24    1
    29    24    25    1
    30    24    26    1
    31    18    19   ar
    32    19    20   ar
    33    20    12   ar
    34    19    15   ar
    35     9     1   ar
    36     8     4    1
    37    29    30    1
    38    35    36    1
    39     9    10    1
@<TRIPOS>MOLECULE
*****
 36 39 0 0 0
SMALL
GASTEIGER

@<TRIPOS>ATOM
      1 C         140.6814  143.8161  162.6235 C.ar    1  UNL1        0.0957
      2 C         139.7756  145.0116  162.6050 C.ar    1  UNL1        0.1191
      3 N         139.5806  145.7854  161.3349 N.ar    1  UNL1       -0.2223
      4 C         140.2915  145.3637  160.0831 C.ar    1  UNL1        0.1784
      5 N         140.2948  145.9264  158.6927 N.ar    1  UNL1       -0.2236
      6 C         141.2027  145.0787  157.8518 C.ar    1  UNL1        0.1066
      7 C         141.7604  143.9921  158.7225 C.ar    1  UNL1        0.0910
      8 C         141.1972  144.1682  160.1016 C.ar    1  UNL1        0.0988
      9 N         141.3922  143.3945  161.3717 N.ar    1  UNL1       -0.3481
     10 H         141.9867  142.6098  161.3838 H       1  UNL1        0.1661
     11 C         137.9084  138.6632  166.6719 C.3     1  UNL1        0.0311
     12 C         138.5991  139.7608  165.9181 C.ar    1  UNL1       -0.0204
     13 C         138.0278  140.2554  164.6223 C.ar    1  UNL1       -0.0041
     14 C         138.7186  141.3529  163.8685 C.ar    1  UNL1        0.0028
     15 C         139.9806  141.9558  164.4104 C.ar    1  UNL1        0.0381
     16 C         140.8763  143.0424  163.8936 C.ar    1  UNL1        0.1193
     17 N         142.0013  143.2193  164.8700 N.ar    1  UNL1       -0.1678
     18 N         141.8008  142.2421  165.9902 N.ar    1  UNL1       -0.2508
     19 C         140.5519  141.4612  165.7061 C.ar    1  UNL1        0.0791
     20 C         139.8612  140.3637  166.4599 C.ar    1  UNL1        0.0145
     21 C         142.6925  142.0751  167.1847 C.3     1  UNL1        0.1289
     22 C         142.2040  142.4710  168.5465 C.3     1  UNL1        0.0437
     23 C         141.6529  141.4317  169.4771 C.3     1  UNL1        0.0742
     24 N         140.2652  141.5778  170.0275 N.3     1  UNL1       -0.2703
     25 C         139.8089  142.8996  170.5702 C.3     1  UNL1        0.0897
     26 C         139.3337  140.4021  170.0351 C.3     1  UNL1        0.0897
     27 C         142.7139  142.9180  158.2901 C.2     1  UNL1        0.2488
     28 O         142.6441  141.5566  158.9161 O.2     1  UNL1       -0.2700
     29 N         143.7373  143.2051  157.2316 N.am    1  UNL1       -0.3015
     30 H         143.7831  144.0986  156.8207 H       1  UNL1        0.1497
     31 C         144.6908  142.1309  156.7992 C.3     1  UNL1        0.0841
     32 C         145.6485  142.5475  157.8760 C.3     1  UNL1        0.0222
     33 C         143.7332  141.7143  155.7225 C.3     1  UNL1        0.0222
     34 C         145.6443  141.0568  156.3669 C.3     1  UNL1        0.1549
     35 O         147.0664  141.4037  156.0395 O.3     1  UNL1       -0.3803
     36 H         147.0883  141.9674  155.2505 H       1  UNL1        0.2105
@<TRIPOS>BOND
     1    11    12    1
     2    12    13   ar
     3    13    14   ar
     4    14    15   ar
     5    15    16   ar
     6    16     1    1
     7     1     2   ar
     8     2     3   ar
     9     3     4   ar
    10     4     5   ar
    11     5     6   ar
    12     6     7   ar
    13     7    27    1
    14    27    28    2
    15    27    29   am
    16    29    31    1
    17    31    32    1
    18    31    33    1
    19    31    34    1
    20    34    35    1
    21     7     8   ar
    22     8     9   ar
    23    16    17   ar
    24    17    18   ar
    25    18    21    1
    26    21    22    1
    27    22    23    1
    28    23    24    1
    29    24    25    1
    30    24    26    1
    31    18    19   ar
    32    19    20   ar
    33    20    12   ar
    34    19    15   ar
    35     9     1   ar
    36     8     4    1
    37    29    30    1
    38    35    36    1
    39     9    10    1
@<TRIPOS>MOLECULE
*****
 36 39 0 0 0
SMALL
GASTEIGER

@<TRIPOS>ATOM
      1 C         142.9288  138.4096  159.0984 C.ar    1  UNL1        0.0957
      2 C         142.7618  139.5981  158.1988 C.ar    1  UNL1        0.1191
      3 N         142.7247  139.4132  156.7107 N.ar    1  UNL1       -0.2223
      4 C         142.8545  138.0396  156.1221 C.ar    1  UNL1        0.1784
      5 N         142.8538  137.5511  154.7039 N.ar    1  UNL1       -0.2236
      6 C         143.0203  136.0606  154.7270 C.ar    1  UNL1        0.1066
      7 C         143.1239  135.6279  156.1595 C.ar    1  UNL1        0.0910
      8 C         143.0214  136.8510  157.0217 C.ar    1  UNL1        0.0988
      9 N         143.0586  137.0359  158.5098 N.ar    1  UNL1       -0.3481
     10 H         143.1681  136.2558  159.1002 H       1  UNL1        0.1661
     11 C         138.9402  138.2532  164.9889 C.3     1  UNL1        0.0311
     12 C         139.8939  138.3207  163.8331 C.ar    1  UNL1       -0.0204
     13 C         139.4054  138.0502  162.4409 C.ar    1  UNL1       -0.0041
     14 C         140.3591  138.1176  161.2851 C.ar    1  UNL1        0.0028
     15 C         141.8013  138.4555  161.5215 C.ar    1  UNL1        0.0381
     16 C         142.9659  138.5945  160.5864 C.ar    1  UNL1        0.1193
     17 N         144.1742  138.9509  161.4007 N.ar    1  UNL1       -0.1678
     18 N         143.7563  139.0322  162.8390 N.ar    1  UNL1       -0.2508
     19 C         142.2898  138.7260  162.9136 C.ar    1  UNL1        0.0791
     20 C         141.3361  138.6586  164.0695 C.ar    1  UNL1        0.0145
     21 C         144.6483  139.3618  163.9991 C.3     1  UNL1        0.1289
     22 C         144.9963  140.7905  164.2953 C.3     1  UNL1        0.0437
     23 C         145.4010  141.7103  163.1818 C.3     1  UNL1        0.0742
     24 N         144.3595  142.2873  162.2695 N.3     1  UNL1       -0.2703
     25 C         142.9604  142.4988  162.7675 C.3     1  UNL1        0.0897
     26 C         144.7169  142.6528  160.8593 C.3     1  UNL1        0.0897
     27 C         143.2992  134.2194  156.6445 C.2     1  UNL1        0.2488
     28 O         143.3658  133.9356  158.1160 O.2     1  UNL1       -0.2700
     29 N         143.4079  133.0945  155.6582 N.am    1  UNL1       -0.3015
     30 H         143.3641  133.2807  154.6924 H       1  UNL1        0.1497
     31 C         143.5832  131.6859  156.1433 C.3     1  UNL1        0.0841
     32 C         145.0494  131.9355  156.3381 C.3     1  UNL1        0.0222
     33 C         142.1170  131.4363  155.9485 C.3     1  UNL1        0.0222
     34 C         143.7585  130.2774  156.6284 C.3     1  UNL1        0.1549
     35 O         143.3777  129.9152  158.0332 O.3     1  UNL1       -0.3803
     36 H         143.9624  130.3752  158.6556 H       1  UNL1        0.2105
@<TRIPOS>BOND
     1    11    12    1
     2    12    13   ar
     3    13    14   ar
     4    14    15   ar
     5    15    16   ar
     6    16     1    1
     7     1     2   ar
     8     2     3   ar
     9     3     4   ar
    10     4     5   ar
    11     5     6   ar
    12     6     7   ar
    13     7    27    1
    14    27    28    2
    15    27    29   am
    16    29    31    1
    17    31    32    1
    18    31    33    1
    19    31    34    1
    20    34    35    1
    21     7     8   ar
    22     8     9   ar
    23    16    17   ar
    24    17    18   ar
    25    18    21    1
    26    21    22    1
    27    22    23    1
    28    23    24    1
    29    24    25    1
    30    24    26    1
    31    18    19   ar
    32    19    20   ar
    33    20    12   ar
    34    19    15   ar
    35     9     1   ar
    36     8     4    1
    37    29    30    1
    38    35    36    1
    39     9    10    1
@<TRIPOS>MOLECULE
*****
 36 39 0 0 0
SMALL
GASTEIGER

@<TRIPOS>ATOM
      1 C         139.0485  142.3108  159.7007 C.ar    1  UNL1        0.0957
      2 C         138.4984  140.9308  159.9080 C.ar    1  UNL1        0.1191
      3 N         137.7259  140.2588  158.8119 N.ar    1  UNL1       -0.2223
      4 C         137.5034  140.9667  157.5083 C.ar    1  UNL1        0.1784
      5 N         136.7871  140.5600  156.2547 N.ar    1  UNL1       -0.2236
      6 C         136.8946  141.6886  155.2726 C.ar    1  UNL1        0.1066
      7 C         137.6773  142.7928  155.9191 C.ar    1  UNL1        0.0910
      8 C         138.0536  142.3467  157.3009 C.ar    1  UNL1        0.0988
      9 N         138.8261  143.0187  158.3970 N.ar    1  UNL1       -0.3481
     10 H         139.1872  143.9244  158.2609 H       1  UNL1        0.1661
     11 C         138.4566  145.2331  166.1614 C.3     1  UNL1        0.0311
     12 C         138.7238  144.6489  164.8059 C.ar    1  UNL1       -0.0204
     13 C         137.6006  144.0489  164.0132 C.ar    1  UNL1       -0.0041
     14 C         137.8677  143.4647  162.6578 C.ar    1  UNL1        0.0028
     15 C         139.2580  143.4804  162.0950 C.ar    1  UNL1        0.0381
     16 C         139.8211  142.9828  160.7968 C.ar    1  UNL1        0.1193
     17 N         141.2923  143.2753  160.7872 N.ar    1  UNL1       -0.1678
     18 N         141.6385  143.9536  162.0794 N.ar    1  UNL1       -0.2508
     19 C         140.3812  144.0803  162.8877 C.ar    1  UNL1        0.0791
     20 C         140.1141  144.6646  164.2432 C.ar    1  UNL1        0.0145
     21 C         143.0024  144.4228  162.4912 C.3     1  UNL1        0.1289
     22 C         143.4185  144.3480  163.9303 C.3     1  UNL1        0.0437
     23 C         143.6827  143.0155  164.5664 C.3     1  UNL1        0.0742
     24 N         144.1673  141.8682  163.7305 N.3     1  UNL1       -0.2703
     25 C         145.6043  141.8043  163.3054 C.3     1  UNL1        0.0897
     26 C         143.2147  140.7847  163.3197 C.3     1  UNL1        0.0897
     27 C         138.0229  144.1116  155.2937 C.2     1  UNL1        0.2488
     28 O         137.0606  144.7691  154.3493 O.2     1  UNL1       -0.2700
     29 N         139.3309  144.7730  155.6126 N.am    1  UNL1       -0.3015
     30 H         139.9625  144.3416  156.2324 H       1  UNL1        0.1497
     31 C         139.6766  146.0919  154.9871 C.3     1  UNL1        0.0841
     32 C         140.3443  145.3775  153.8496 C.3     1  UNL1        0.0222
     33 C         139.0089  146.8064  156.1245 C.3     1  UNL1        0.0222
     34 C         140.0222  147.4107  154.3616 C.3     1  UNL1        0.1549
     35 O         140.0481  148.6544  155.1997 O.3     1  UNL1       -0.3803
     36 H         139.1513  148.8528  155.5116 H       1  UNL1        0.2105
@<TRIPOS>BOND
     1    11    12    1
     2    12    13   ar
     3    13    14   ar
     4    14    15   ar
     5    15    16   ar
     6    16     1    1
     7     1     2   ar
     8     2     3   ar
     9     3     4   ar
    10     4     5   ar
    11     5     6   ar
    12     6     7   ar
    13     7    27    1
    14    27    28    2
    15    27    29   am
    16    29    31    1
    17    31    32    1
    18    31    33    1
    19    31    34    1
    20    34    35    1
    21     7     8   ar
    22     8     9   ar
    23    16    17   ar
    24    17    18   ar
    25    18    21    1
    26    21    22    1
    27    22    23    1
    28    23    24    1
    29    24    25    1
    30    24    26    1
    31    18    19   ar
    32    19    20   ar
    33    20    12   ar
    34    19    15   ar
    35     9     1   ar
    36     8     4    1
    37    29    30    1
    38    35    36    1
    39     9    10    1
@<TRIPOS>MOLECULE
*****
 36 39 0 0 0
SMALL
GASTEIGER

@<TRIPOS>ATOM
      1 C         139.7436  143.1218  162.9572 C.ar    1  UNL1        0.0957
      2 C         138.9451  144.3747  163.1634 C.ar    1  UNL1        0.1191
      3 N         138.9640  145.4558  162.1238 N.ar    1  UNL1       -0.2223
      4 C         139.7813  145.2840  160.8778 C.ar    1  UNL1        0.1784
      5 N         139.9937  146.1704  159.6866 N.ar    1  UNL1       -0.2236
      6 C         140.9234  145.4653  158.7440 C.ar    1  UNL1        0.1066
      7 C         141.2856  144.1431  159.3527 C.ar    1  UNL1        0.0910
      8 C         140.5797  144.0311  160.6715 C.ar    1  UNL1        0.0988
      9 N         140.5609  142.9500  161.7112 N.ar    1  UNL1       -0.3481
     10 H         141.0850  142.1276  161.5758 H       1  UNL1        0.1661
     11 C         142.9582  140.8051  168.8674 C.3     1  UNL1        0.0311
     12 C         142.1914  141.1785  167.6335 C.ar    1  UNL1       -0.0204
     13 C         142.5699  142.4052  166.8578 C.ar    1  UNL1       -0.0041
     14 C         141.8030  142.7786  165.6238 C.ar    1  UNL1        0.0028
     15 C         140.6578  141.9252  165.1656 C.ar    1  UNL1        0.0381
     16 C         139.7248  142.0407  163.9968 C.ar    1  UNL1        0.1193
     17 N         138.7696  140.8853  164.0502 N.ar    1  UNL1       -0.1678
     18 N         139.1123  140.0557  165.2520 N.ar    1  UNL1       -0.2508
     19 C         140.2793  140.6985  165.9414 C.ar    1  UNL1        0.0791
     20 C         141.0461  140.3251  167.1753 C.ar    1  UNL1        0.0145
     21 C         138.4112  138.8034  165.6878 C.3     1  UNL1        0.1289
     22 C         138.7546  137.4905  165.0488 C.3     1  UNL1        0.0437
     23 C         138.7746  137.3663  163.5541 C.3     1  UNL1        0.0742
     24 N         140.0375  137.6469  162.7950 N.3     1  UNL1       -0.2703
     25 C         141.3695  137.3719  163.4274 C.3     1  UNL1        0.0897
     26 C         139.9684  138.2025  161.4034 C.3     1  UNL1        0.0897
     27 C         142.1942  143.1138  158.7488 C.2     1  UNL1        0.2488
     28 O         141.9987  141.6611  159.0677 O.2     1  UNL1       -0.2700
     29 N         143.2983  143.5370  157.8258 N.am    1  UNL1       -0.3015
     30 H         143.4267  144.4904  157.6165 H       1  UNL1        0.1497
     31 C         144.2069  142.5075  157.2218 C.3     1  UNL1        0.0841
     32 C         145.0666  142.5453  158.4505 C.3     1  UNL1        0.0222
     33 C         143.3474  142.4697  155.9931 C.3     1  UNL1        0.0222
     34 C         145.1155  141.4781  156.6179 C.3     1  UNL1        0.1549
     35 O         145.2785  140.1415  157.2787 O.3     1  UNL1       -0.3803
     36 H         145.7125  140.2567  158.1385 H       1  UNL1        0.2105
@<TRIPOS>BOND
     1    11    12    1
     2    12    13   ar
     3    13    14   ar
     4    14    15   ar
     5    15    16   ar
     6    16     1    1
     7     1     2   ar
     8     2     3   ar
     9     3     4   ar
    10     4     5   ar
    11     5     6   ar
    12     6     7   ar
    13     7    27    1
    14    27    28    2
    15    27    29   am
    16    29    31    1
    17    31    32    1
    18    31    33    1
    19    31    34    1
    20    34    35    1
    21     7     8   ar
    22     8     9   ar
    23    16    17   ar
    24    17    18   ar
    25    18    21    1
    26    21    22    1
    27    22    23    1
    28    23    24    1
    29    24    25    1
    30    24    26    1
    31    18    19   ar
    32    19    20   ar
    33    20    12   ar
    34    19    15   ar
    35     9     1   ar
    36     8     4    1
    37    29    30    1
    38    35    36    1
    39     9    10    1
@<TRIPOS>MOLECULE
*****
 36 39 0 0 0
SMALL
GASTEIGER

@<TRIPOS>ATOM
      1 C         140.4517  138.4731  158.3734 C.ar    1  UNL1        0.0957
      2 C         139.3554  139.4216  157.9882 C.ar    1  UNL1        0.1191
      3 N         138.7302  139.3327  156.6276 N.ar    1  UNL1       -0.2223
      4 C         139.2014  138.2953  155.6520 C.ar    1  UNL1        0.1784
      5 N         138.7781  137.9700  154.2503 N.ar    1  UNL1       -0.2236
      6 C         139.6129  136.8204  153.7691 C.ar    1  UNL1        0.1066
      7 C         140.5521  136.4352  154.8734 C.ar    1  UNL1        0.0910
      8 C         140.2978  137.3468  156.0372 C.ar    1  UNL1        0.0988
      9 N         140.9229  137.4357  157.3978 N.ar    1  UNL1       -0.3481
     10 H         141.6425  136.8131  157.6505 H       1  UNL1        0.1661
     11 C         139.1152  137.8892  165.3379 C.3     1  UNL1        0.0311
     12 C         139.5351  138.0425  163.9060 C.ar    1  UNL1       -0.0204
     13 C         138.5321  137.8567  162.8063 C.ar    1  UNL1       -0.0041
     14 C         138.9520  138.0099  161.3744 C.ar    1  UNL1        0.0028
     15 C         140.3749  138.3490  161.0423 C.ar    1  UNL1        0.0381
     16 C         141.0769  138.5620  159.7340 C.ar    1  UNL1        0.1193
     17 N         142.5137  138.8794  160.0251 N.ar    1  UNL1       -0.1678
     18 N         142.6998  138.8626  161.5134 N.ar    1  UNL1       -0.2508
     19 C         141.3779  138.5348  162.1421 C.ar    1  UNL1        0.0791
     20 C         140.9580  138.3816  163.5739 C.ar    1  UNL1        0.0145
     21 C         143.9825  139.1272  162.2446 C.3     1  UNL1        0.1289
     22 C         144.4757  140.5342  162.4088 C.3     1  UNL1        0.0437
     23 C         143.6418  141.5402  163.1454 C.3     1  UNL1        0.0742
     24 N         142.9387  142.6288  162.3901 N.3     1  UNL1       -0.2703
     25 C         143.4875  144.0247  162.4018 C.3     1  UNL1        0.0897
     26 C         141.6868  142.3215  161.6231 C.3     1  UNL1        0.0897
     27 C         141.5673  135.3322  154.8228 C.2     1  UNL1        0.2488
     28 O         142.4417  135.1725  153.6145 O.2     1  UNL1       -0.2700
     29 N         141.7081  134.3888  155.9804 N.am    1  UNL1       -0.3015
     30 H         141.1342  134.4936  156.7735 H       1  UNL1        0.1497
     31 C         142.7234  133.2857  155.9298 C.3     1  UNL1        0.0841
     32 C         141.7005  132.3722  155.3220 C.3     1  UNL1        0.0222
     33 C         143.7462  134.1991  156.5376 C.3     1  UNL1        0.0222
     34 C         143.7386  132.1827  155.8791 C.3     1  UNL1        0.1549
     35 O         145.1831  132.4798  156.1525 O.3     1  UNL1       -0.3803
     36 H         145.5329  133.0545  155.4537 H       1  UNL1        0.2105
@<TRIPOS>BOND
     1    11    12    1
     2    12    13   ar
     3    13    14   ar
     4    14    15   ar
     5    15    16   ar
     6    16     1    1
     7     1     2   ar
     8     2     3   ar
     9     3     4   ar
    10     4     5   ar
    11     5     6   ar
    12     6     7   ar
    13     7    27    1
    14    27    28    2
    15    27    29   am
    16    29    31    1
    17    31    32    1
    18    31    33    1
    19    31    34    1
    20    34    35    1
    21     7     8   ar
    22     8     9   ar
    23    16    17   ar
    24    17    18   ar
    25    18    21    1
    26    21    22    1
    27    22    23    1
    28    23    24    1
    29    24    25    1
    30    24    26    1
    31    18    19   ar
    32    19    20   ar
    33    20    12   ar
    34    19    15   ar
    35     9     1   ar
    36     8     4    1
    37    29    30    1
    38    35    36    1
    39     9    10    1
