@<TRIPOS>MOLECULE
*****
 30 34 0 0 0
SMALL
GASTEIGER

@<TRIPOS>ATOM
      1 C         141.8388  140.6511  166.0097 C.ar    1  UNL1        0.1682
      2 C         140.7681  139.8251  165.3605 C.ar    1  UNL1        0.0730
      3 C         139.5797  139.3766  166.1584 C.ar    1  UNL1        0.1346
      4 N         139.4621  139.7539  167.6054 N.ar    1  UNL1       -0.1980
      5 N         138.4141  139.4596  168.6374 N.ar    1  UNL1       -0.1602
      6 C         138.8371  140.1036  169.9243 C.ar    1  UNL1        0.1339
      7 C         140.1465  140.7960  169.6878 C.ar    1  UNL1        0.1250
      8 C         140.5328  140.5799  168.2545 C.ar    1  UNL1        0.1778
      9 N         141.7211  141.0284  167.4567 N.ar    1  UNL1       -0.2068
     10 C         142.5030  144.5931  163.2284 C.ar    1  UNL1        0.0518
     11 C         143.8671  144.6436  162.6065 C.ar    1  UNL1        0.0148
     12 C         144.8543  143.5464  162.8737 C.ar    1  UNL1        0.0044
     13 C         144.4775  142.3986  163.7628 C.ar    1  UNL1        0.0387
     14 C         145.2342  141.1815  164.2056 C.ar    1  UNL1        0.1220
     15 N         144.3378  140.3787  165.1012 N.ar    1  UNL1       -0.1622
     16 N         143.0272  141.0997  165.2119 N.ar    1  UNL1       -0.2120
     17 C         143.1135  142.3481  164.3847 C.ar    1  UNL1        0.0872
     18 C         142.1263  143.4453  164.1175 C.ar    1  UNL1        0.0339
     19 C         139.4681  146.6043  161.6491 C.3     1  UNL1        0.0949
     20 C         140.4554  145.5070  161.9163 C.2     1  UNL1        0.2266
     21 O         140.3822  144.2265  161.1385 O.2     1  UNL1       -0.2748
     22 N         141.5158  145.6903  162.9612 N.am    1  UNL1       -0.2839
     23 H         141.5638  146.5308  163.4717 H       1  UNL1        0.1549
     24 N         138.5090  138.5507  165.5092 N.pl3   1  UNL1       -0.3196
     25 H         137.8313  138.0999  166.0631 H       1  UNL1        0.1481
     26 C         138.4709  138.4114  164.0162 C.3     1  UNL1        0.0705
     27 C         138.1265  138.9709  162.6677 C.3     1  UNL1        0.0212
     28 C         138.7491  137.6108  162.7786 C.3     1  UNL1        0.0212
     29 C         140.9318  141.5688  170.7056 C.1     1  UNL1        0.1052
     30 N         141.7171  142.3416  171.7235 N.1     1  UNL1       -0.1907
@<TRIPOS>BOND
     1    19    20    1
     2    20    21    2
     3    20    22   am
     4    22    10    1
     5    10    11   ar
     6    11    12   ar
     7    12    13   ar
     8    13    14   ar
     9    14    15   ar
    10    15    16   ar
    11    16     1    1
    12     1     2   ar
    13     2     3   ar
    14     3    24    1
    15    24    26    1
    16    26    27    1
    17    27    28    1
    18     3     4   ar
    19     4     5   ar
    20     5     6   ar
    21     6     7   ar
    22     7    29    1
    23    29    30    3
    24     7     8   ar
    25     8     9   ar
    26    16    17   ar
    27    17    18   ar
    28    18    10   ar
    29    17    13   ar
    30     9     1   ar
    31    28    26    1
    32     8     4   ar
    33    22    23    1
    34    24    25    1
@<TRIPOS>MOLECULE
*****
 30 34 0 0 0
SMALL
GASTEIGER

@<TRIPOS>ATOM
      1 C         142.6165  143.0454  162.1777 C.ar    1  UNL1        0.1682
      2 C         141.6096  143.8549  162.9399 C.ar    1  UNL1        0.0730
      3 C         140.6994  144.7985  162.2111 C.ar    1  UNL1        0.1346
      4 N         140.7960  144.9326  160.7203 N.ar    1  UNL1       -0.1980
      5 N         140.0381  145.7746  159.7371 N.ar    1  UNL1       -0.1602
      6 C         140.5766  145.4854  158.3672 C.ar    1  UNL1        0.1339
      7 C         141.6673  144.4648  158.5038 C.ar    1  UNL1        0.1250
      8 C         141.8029  144.1232  159.9581 C.ar    1  UNL1        0.1778
      9 N         142.7131  143.1796  160.6868 N.ar    1  UNL1       -0.2068
     10 C         141.6267  139.1291  164.8978 C.ar    1  UNL1        0.0518
     11 C         142.8601  138.4723  165.4432 C.ar    1  UNL1        0.0148
     12 C         144.2130  139.0379  165.1275 C.ar    1  UNL1        0.0044
     13 C         144.3327  140.2603  164.2665 C.ar    1  UNL1        0.0387
     14 C         145.5223  141.0390  163.7888 C.ar    1  UNL1        0.1220
     15 N         145.0243  142.1772  162.9482 N.ar    1  UNL1       -0.1622
     16 N         143.5268  142.1018  162.9063 N.ar    1  UNL1       -0.2120
     17 C         143.0993  140.9170  163.7211 C.ar    1  UNL1        0.0872
     18 C         141.7464  140.3515  164.0367 C.ar    1  UNL1        0.0339
     19 C         138.0355  138.6838  166.5270 C.3     1  UNL1        0.0949
     20 C         139.3884  139.2494  166.2114 C.2     1  UNL1        0.2266
     21 O         139.8560  140.5008  166.8936 O.2     1  UNL1       -0.2748
     22 N         140.2738  138.5636  165.2135 N.am    1  UNL1       -0.2839
     23 H         139.9669  137.7422  164.7658 H       1  UNL1        0.1549
     24 N         139.6925  145.6080  162.9733 N.pl3   1  UNL1       -0.3196
     25 H         139.5367  146.5505  162.7353 H       1  UNL1        0.1481
     26 C         138.9230  144.9815  164.0981 C.3     1  UNL1        0.0705
     27 C         137.8765  144.0206  164.5794 C.3     1  UNL1        0.0212
     28 C         138.6365  144.8574  165.5653 C.3     1  UNL1        0.0212
     29 C         142.4798  143.8872  157.3830 C.1     1  UNL1        0.1052
     30 N         143.2922  143.3097  156.2621 N.1     1  UNL1       -0.1907
@<TRIPOS>BOND
     1    19    20    1
     2    20    21    2
     3    20    22   am
     4    22    10    1
     5    10    11   ar
     6    11    12   ar
     7    12    13   ar
     8    13    14   ar
     9    14    15   ar
    10    15    16   ar
    11    16     1    1
    12     1     2   ar
    13     2     3   ar
    14     3    24    1
    15    24    26    1
    16    26    27    1
    17    27    28    1
    18     3     4   ar
    19     4     5   ar
    20     5     6   ar
    21     6     7   ar
    22     7    29    1
    23    29    30    3
    24     7     8   ar
    25     8     9   ar
    26    16    17   ar
    27    17    18   ar
    28    18    10   ar
    29    17    13   ar
    30     9     1   ar
    31    28    26    1
    32     8     4   ar
    33    22    23    1
    34    24    25    1
@<TRIPOS>MOLECULE
*****
 30 34 0 0 0
SMALL
GASTEIGER

@<TRIPOS>ATOM
      1 C         141.1342  142.0314  166.1654 C.ar    1  UNL1        0.1682
      2 C         141.9221  140.9819  165.4389 C.ar    1  UNL1        0.0730
      3 C         142.5988  139.8859  166.2076 C.ar    1  UNL1        0.1346
      4 N         142.4875  139.8394  167.7028 N.ar    1  UNL1       -0.1980
      5 N         143.0414  138.8877  168.7213 N.ar    1  UNL1       -0.1602
      6 C         142.5958  139.3491  170.0773 C.ar    1  UNL1        0.1339
      7 C         141.7665  140.5859  169.8968 C.ar    1  UNL1        0.1250
      8 C         141.6995  140.8889  168.4292 C.ar    1  UNL1        0.1778
      9 N         141.0229  141.9849  167.6605 N.ar    1  UNL1       -0.2068
     10 C         142.2563  144.0882  161.8961 C.ar    1  UNL1        0.0518
     11 C         141.2909  145.1645  161.4968 C.ar    1  UNL1        0.0148
     12 C         140.1313  145.5000  162.3872 C.ar    1  UNL1        0.0044
     13 C         139.9371  144.7591  163.6769 C.ar    1  UNL1        0.0387
     14 C         138.8955  144.8690  164.7506 C.ar    1  UNL1        0.1220
     15 N         139.2171  143.8606  165.8135 N.ar    1  UNL1       -0.1622
     16 N         140.4575  143.1274  165.3967 N.ar    1  UNL1       -0.2120
     17 C         140.9025  143.6827  164.0762 C.ar    1  UNL1        0.0872
     18 C         142.0621  143.3473  163.1858 C.ar    1  UNL1        0.0339
     19 C         144.3811  142.5010  158.9438 C.3     1  UNL1        0.0949
     20 C         143.2215  142.8364  159.8342 C.2     1  UNL1        0.2266
     21 O         141.8674  142.2554  159.5531 O.2     1  UNL1       -0.2748
     22 N         143.4159  143.7528  161.0057 N.am    1  UNL1       -0.2839
     23 H         144.3046  144.1341  161.1902 H       1  UNL1        0.1549
     24 N         143.3867  138.8365  165.4812 N.pl3   1  UNL1       -0.3196
     25 H         143.8518  138.1317  165.9874 H       1  UNL1        0.1481
     26 C         143.4661  138.8607  163.9835 C.3     1  UNL1        0.0705
     27 C         142.9552  138.4075  162.6480 C.3     1  UNL1        0.0212
     28 C         144.1146  139.3561  162.7249 C.3     1  UNL1        0.0212
     29 C         141.1179  141.3802  170.9916 C.1     1  UNL1        0.1052
     30 N         140.4694  142.1745  172.0863 N.1     1  UNL1       -0.1907
@<TRIPOS>BOND
     1    19    20    1
     2    20    21    2
     3    20    22   am
     4    22    10    1
     5    10    11   ar
     6    11    12   ar
     7    12    13   ar
     8    13    14   ar
     9    14    15   ar
    10    15    16   ar
    11    16     1    1
    12     1     2   ar
    13     2     3   ar
    14     3    24    1
    15    24    26    1
    16    26    27    1
    17    27    28    1
    18     3     4   ar
    19     4     5   ar
    20     5     6   ar
    21     6     7   ar
    22     7    29    1
    23    29    30    3
    24     7     8   ar
    25     8     9   ar
    26    16    17   ar
    27    17    18   ar
    28    18    10   ar
    29    17    13   ar
    30     9     1   ar
    31    28    26    1
    32     8     4   ar
    33    22    23    1
    34    24    25    1
@<TRIPOS>MOLECULE
*****
 30 34 0 0 0
SMALL
GASTEIGER

@<TRIPOS>ATOM
      1 C         141.0261  140.5837  165.3960 C.ar    1  UNL1        0.1682
      2 C         142.1618  141.4513  164.9407 C.ar    1  UNL1        0.0730
      3 C         143.0218  142.1520  165.9504 C.ar    1  UNL1        0.1346
      4 N         142.7462  141.9849  167.4153 N.ar    1  UNL1       -0.1980
      5 N         143.4181  142.5461  168.6334 N.ar    1  UNL1       -0.1602
      6 C         142.6976  142.0252  169.8415 C.ar    1  UNL1        0.1339
      7 C         141.5804  141.1421  169.3702 C.ar    1  UNL1        0.1250
      8 C         141.6105  141.1173  167.8707 C.ar    1  UNL1        0.1778
      9 N         140.7505  140.4166  166.8610 N.ar    1  UNL1       -0.2068
     10 C         138.9573  142.2102  161.2984 C.ar    1  UNL1        0.0518
     11 C         138.1699  141.1521  160.5840 C.ar    1  UNL1        0.0148
     12 C         138.0878  139.7663  161.1523 C.ar    1  UNL1        0.0044
     13 C         138.7931  139.4387  162.4349 C.ar    1  UNL1        0.0387
     14 C         138.8919  138.1709  163.2305 C.ar    1  UNL1        0.1220
     15 N         139.7405  138.4455  164.4366 N.ar    1  UNL1       -0.1622
     16 N         140.1661  139.8830  164.3864 N.ar    1  UNL1       -0.2120
     17 C         139.5805  140.4968  163.1493 C.ar    1  UNL1        0.0872
     18 C         139.6626  141.8826  162.5810 C.ar    1  UNL1        0.0339
     19 C         140.2963  145.3776  159.3172 C.3     1  UNL1        0.0949
     20 C         140.2141  143.9918  159.8855 C.2     1  UNL1        0.2266
     21 O         141.3068  143.0019  159.6091 O.2     1  UNL1       -0.2748
     22 N         139.0395  143.5960  160.7301 N.am    1  UNL1       -0.2839
     23 H         138.3224  144.2457  160.9115 H       1  UNL1        0.1549
     24 N         144.1575  143.0196  165.4950 N.pl3   1  UNL1       -0.3196
     25 H         145.0085  143.0166  165.9901 H       1  UNL1        0.1481
     26 C         143.9968  143.8919  164.2854 C.3     1  UNL1        0.0705
     27 C         144.2265  144.1421  162.8244 C.3     1  UNL1        0.0212
     28 C         143.4886  145.1527  163.6513 C.3     1  UNL1        0.0212
     29 C         140.6046  140.4121  170.2447 C.1     1  UNL1        0.1052
     30 N         139.6287  139.6821  171.1192 N.1     1  UNL1       -0.1907
@<TRIPOS>BOND
     1    19    20    1
     2    20    21    2
     3    20    22   am
     4    22    10    1
     5    10    11   ar
     6    11    12   ar
     7    12    13   ar
     8    13    14   ar
     9    14    15   ar
    10    15    16   ar
    11    16     1    1
    12     1     2   ar
    13     2     3   ar
    14     3    24    1
    15    24    26    1
    16    26    27    1
    17    27    28    1
    18     3     4   ar
    19     4     5   ar
    20     5     6   ar
    21     6     7   ar
    22     7    29    1
    23    29    30    3
    24     7     8   ar
    25     8     9   ar
    26    16    17   ar
    27    17    18   ar
    28    18    10   ar
    29    17    13   ar
    30     9     1   ar
    31    28    26    1
    32     8     4   ar
    33    22    23    1
    34    24    25    1
@<TRIPOS>MOLECULE
*****
 30 34 0 0 0
SMALL
GASTEIGER

@<TRIPOS>ATOM
      1 C         143.9030  142.4762  160.8669 C.ar    1  UNL1        0.1682
      2 C         144.5817  142.2052  159.5570 C.ar    1  UNL1        0.0730
      3 C         144.1124  142.8976  158.3119 C.ar    1  UNL1        0.1346
      4 N         142.9644  143.8609  158.3767 N.ar    1  UNL1       -0.1980
      5 N         142.2861  144.6863  157.3238 N.ar    1  UNL1       -0.1602
      6 C         141.1883  145.4674  157.9831 C.ar    1  UNL1        0.1339
      7 C         141.1880  145.1247  159.4434 C.ar    1  UNL1        0.1250
      8 C         142.2857  144.1319  159.6867 C.ar    1  UNL1        0.1778
      9 N         142.7551  143.4395  160.9317 N.ar    1  UNL1       -0.2068
     10 C         141.5636  139.4985  163.9291 C.ar    1  UNL1        0.0518
     11 C         142.4295  139.0297  165.0607 C.ar    1  UNL1        0.0148
     12 C         143.8554  139.4862  165.1528 C.ar    1  UNL1        0.0044
     13 C         144.4153  140.4114  164.1135 C.ar    1  UNL1        0.0387
     14 C         145.7733  141.0252  163.9430 C.ar    1  UNL1        0.1220
     15 N         145.7467  141.8734  162.7061 N.ar    1  UNL1       -0.1622
     16 N         144.3723  141.7838  162.1121 N.ar    1  UNL1       -0.2120
     17 C         143.5494  140.8802  162.9819 C.ar    1  UNL1        0.0872
     18 C         142.1235  140.4238  162.8898 C.ar    1  UNL1        0.0339
     19 C         138.3004  137.6230  162.6705 C.3     1  UNL1        0.0949
     20 C         139.7263  138.0795  162.7627 C.2     1  UNL1        0.2266
     21 O         140.7408  137.5732  161.7805 O.2     1  UNL1       -0.2748
     22 N         140.1377  139.0421  163.8370 N.am    1  UNL1       -0.2839
     23 H         139.4718  139.3743  164.4816 H       1  UNL1        0.1549
     24 N         144.7911  142.6266  157.0019 N.pl3   1  UNL1       -0.3196
     25 H         144.2536  142.4432  156.1978 H       1  UNL1        0.1481
     26 C         146.2886  142.6350  156.9172 C.3     1  UNL1        0.0705
     27 C         147.6199  143.0228  157.4891 C.3     1  UNL1        0.0212
     28 C         147.5512  142.2618  156.1984 C.3     1  UNL1        0.0212
     29 C         140.2540  145.6778  160.4787 C.1     1  UNL1        0.1052
     30 N         139.3201  146.2309  161.5139 N.1     1  UNL1       -0.1907
@<TRIPOS>BOND
     1    19    20    1
     2    20    21    2
     3    20    22   am
     4    22    10    1
     5    10    11   ar
     6    11    12   ar
     7    12    13   ar
     8    13    14   ar
     9    14    15   ar
    10    15    16   ar
    11    16     1    1
    12     1     2   ar
    13     2     3   ar
    14     3    24    1
    15    24    26    1
    16    26    27    1
    17    27    28    1
    18     3     4   ar
    19     4     5   ar
    20     5     6   ar
    21     6     7   ar
    22     7    29    1
    23    29    30    3
    24     7     8   ar
    25     8     9   ar
    26    16    17   ar
    27    17    18   ar
    28    18    10   ar
    29    17    13   ar
    30     9     1   ar
    31    28    26    1
    32     8     4   ar
    33    22    23    1
    34    24    25    1
@<TRIPOS>MOLECULE
*****
 30 34 0 0 0
SMALL
GASTEIGER

@<TRIPOS>ATOM
      1 C         141.8075  141.7792  162.1650 C.ar    1  UNL1        0.1682
      2 C         140.8587  142.7805  162.7543 C.ar    1  UNL1        0.0730
      3 C         140.5196  144.0291  161.9955 C.ar    1  UNL1        0.1346
      4 N         141.1293  144.2765  160.6475 N.ar    1  UNL1       -0.1980
      5 N         140.9847  145.4075  159.6728 N.ar    1  UNL1       -0.1602
      6 C         141.8442  145.1051  158.4812 C.ar    1  UNL1        0.1339
      7 C         142.5200  143.7873  158.7194 C.ar    1  UNL1        0.1250
      8 C         142.0782  143.2753  160.0583 C.ar    1  UNL1        0.1778
      9 N         142.4172  142.0266  160.8171 N.ar    1  UNL1       -0.2068
     10 C         142.6207  141.0593  166.9123 C.ar    1  UNL1        0.0518
     11 C         142.9315  139.6287  167.2393 C.ar    1  UNL1        0.0148
     12 C         142.9649  138.6001  166.1481 C.ar    1  UNL1        0.0044
     13 C         142.6875  139.0020  164.7299 C.ar    1  UNL1        0.0387
     14 C         142.6495  138.2158  163.4530 C.ar    1  UNL1        0.1220
     15 N         142.3153  139.1605  162.3367 N.ar    1  UNL1       -0.1622
     16 N         142.1466  140.5305  162.9238 N.ar    1  UNL1       -0.2120
     17 C         142.3767  140.4325  164.4028 C.ar    1  UNL1        0.0872
     18 C         142.3433  141.4611  165.4941 C.ar    1  UNL1        0.0339
     19 C         141.2882  143.3530  169.8641 C.3     1  UNL1        0.0949
     20 C         141.3215  142.3244  168.7728 C.2     1  UNL1        0.2266
     21 O         140.0891  141.5322  168.4509 O.2     1  UNL1       -0.2748
     22 N         142.5873  142.0879  168.0035 N.am    1  UNL1       -0.2839
     23 H         143.3962  142.6078  168.2148 H       1  UNL1        0.1549
     24 N         139.5708  145.0304  162.5847 N.pl3   1  UNL1       -0.3196
     25 H         139.4095  145.8857  162.1246 H       1  UNL1        0.1481
     26 C         138.8679  144.7286  163.8749 C.3     1  UNL1        0.0705
     27 C         138.7661  144.8760  165.3641 C.3     1  UNL1        0.0212
     28 C         137.7520  144.0586  164.6204 C.3     1  UNL1        0.0212
     29 C         143.4706  143.1020  157.7831 C.1     1  UNL1        0.1052
     30 N         144.4213  142.4166  156.8469 N.1     1  UNL1       -0.1907
@<TRIPOS>BOND
     1    19    20    1
     2    20    21    2
     3    20    22   am
     4    22    10    1
     5    10    11   ar
     6    11    12   ar
     7    12    13   ar
     8    13    14   ar
     9    14    15   ar
    10    15    16   ar
    11    16     1    1
    12     1     2   ar
    13     2     3   ar
    14     3    24    1
    15    24    26    1
    16    26    27    1
    17    27    28    1
    18     3     4   ar
    19     4     5   ar
    20     5     6   ar
    21     6     7   ar
    22     7    29    1
    23    29    30    3
    24     7     8   ar
    25     8     9   ar
    26    16    17   ar
    27    17    18   ar
    28    18    10   ar
    29    17    13   ar
    30     9     1   ar
    31    28    26    1
    32     8     4   ar
    33    22    23    1
    34    24    25    1
@<TRIPOS>MOLECULE
*****
 30 34 0 0 0
SMALL
GASTEIGER

@<TRIPOS>ATOM
      1 C         142.4247  141.0457  165.3723 C.ar    1  UNL1        0.1682
      2 C         141.3084  140.1106  165.0124 C.ar    1  UNL1        0.0730
      3 C         140.2557  139.7741  166.0264 C.ar    1  UNL1        0.1346
      4 N         140.3191  140.3727  167.4004 N.ar    1  UNL1       -0.1980
      5 N         139.4309  140.2276  168.6004 N.ar    1  UNL1       -0.1602
      6 C         139.9983  141.0730  169.7019 C.ar    1  UNL1        0.1339
      7 C         141.2372  141.7406  169.1827 C.ar    1  UNL1        0.1250
      8 C         141.4354  141.3077  167.7603 C.ar    1  UNL1        0.1778
      9 N         142.4882  141.6442  166.7462 N.ar    1  UNL1       -0.2068
     10 C         142.0502  142.9417  160.9022 C.ar    1  UNL1        0.0518
     11 C         143.3798  143.1132  160.2293 C.ar    1  UNL1        0.0148
     12 C         144.6379  142.7127  160.9412 C.ar    1  UNL1        0.0044
     13 C         144.5664  142.1407  162.3260 C.ar    1  UNL1        0.0387
     14 C         145.6288  141.6597  163.2694 C.ar    1  UNL1        0.1220
     15 N         144.9558  141.1910  164.5254 N.ar    1  UNL1       -0.1622
     16 N         143.4775  141.3823  164.3582 N.ar    1  UNL1       -0.2120
     17 C         143.2369  141.9693  162.9989 C.ar    1  UNL1        0.0872
     18 C         141.9788  142.3698  162.2870 C.ar    1  UNL1        0.0339
     19 C         138.7553  142.7234  158.7010 C.3     1  UNL1        0.0949
     20 C         140.0134  142.3229  159.4129 C.2     1  UNL1        0.2266
     21 O         140.4926  140.9030  159.3474 O.2     1  UNL1       -0.2748
     22 N         140.7922  143.3422  160.1903 N.am    1  UNL1       -0.2839
     23 H         140.4776  144.2741  160.2333 H       1  UNL1        0.1549
     24 N         139.1394  138.8391  165.6665 N.pl3   1  UNL1       -0.3196
     25 H         138.6121  138.4057  166.3761 H       1  UNL1        0.1481
     26 C         138.8263  138.5642  164.2256 C.3     1  UNL1        0.0705
     27 C         138.8276  137.6313  163.0510 C.3     1  UNL1        0.0212
     28 C         138.2827  139.0210  162.9043 C.3     1  UNL1        0.0212
     29 C         142.1223  142.6766  169.9511 C.1     1  UNL1        0.1052
     30 N         143.0075  143.6127  170.7194 N.1     1  UNL1       -0.1907
@<TRIPOS>BOND
     1    19    20    1
     2    20    21    2
     3    20    22   am
     4    22    10    1
     5    10    11   ar
     6    11    12   ar
     7    12    13   ar
     8    13    14   ar
     9    14    15   ar
    10    15    16   ar
    11    16     1    1
    12     1     2   ar
    13     2     3   ar
    14     3    24    1
    15    24    26    1
    16    26    27    1
    17    27    28    1
    18     3     4   ar
    19     4     5   ar
    20     5     6   ar
    21     6     7   ar
    22     7    29    1
    23    29    30    3
    24     7     8   ar
    25     8     9   ar
    26    16    17   ar
    27    17    18   ar
    28    18    10   ar
    29    17    13   ar
    30     9     1   ar
    31    28    26    1
    32     8     4   ar
    33    22    23    1
    34    24    25    1
@<TRIPOS>MOLECULE
*****
 30 34 0 0 0
SMALL
GASTEIGER

@<TRIPOS>ATOM
      1 C         140.2252  142.7094  164.6884 C.ar    1  UNL1        0.1682
      2 C         140.3923  141.2633  164.3266 C.ar    1  UNL1        0.0730
      3 C         140.5787  140.2373  165.4047 C.ar    1  UNL1        0.1346
      4 N         140.5981  140.6573  166.8446 N.ar    1  UNL1       -0.1980
      5 N         140.7627  139.8776  168.1154 N.ar    1  UNL1       -0.1602
      6 C         140.6974  140.8419  169.2626 C.ar    1  UNL1        0.1339
      7 C         140.4925  142.2175  168.7007 C.ar    1  UNL1        0.1250
      8 C         140.4311  142.1034  167.2064 C.ar    1  UNL1        0.1778
      9 N         140.2446  143.1294  166.1282 N.ar    1  UNL1       -0.2068
     10 C         142.3685  143.1870  160.3416 C.ar    1  UNL1        0.0518
     11 C         141.8718  144.3768  159.5751 C.ar    1  UNL1        0.0148
     12 C         140.8219  145.2675  160.1705 C.ar    1  UNL1        0.0044
     13 C         140.2688  144.9683  161.5322 C.ar    1  UNL1        0.0387
     14 C         139.2351  145.6608  162.3701 C.ar    1  UNL1        0.1220
     15 N         139.0929  144.8989  163.6543 N.ar    1  UNL1       -0.1622
     16 N         140.0388  143.7355  163.6103 N.ar    1  UNL1       -0.2120
     17 C         140.7655  143.7785  162.2987 C.ar    1  UNL1        0.0872
     18 C         141.8154  142.8878  161.7033 C.ar    1  UNL1        0.0339
     19 C         144.0811  140.3493  158.1588 C.3     1  UNL1        0.0949
     20 C         143.0313  141.2399  158.7542 C.2     1  UNL1        0.2266
     21 O         141.5942  141.0743  158.3574 O.2     1  UNL1       -0.2748
     22 N         143.4184  142.2963  159.7462 N.am    1  UNL1       -0.2839
     23 H         144.3616  142.4050  160.0066 H       1  UNL1        0.1549
     24 N         140.7457  138.7912  165.0430 N.pl3   1  UNL1       -0.3196
     25 H         141.2814  138.1985  165.6184 H       1  UNL1        0.1481
     26 C         140.0967  138.2480  163.8047 C.3     1  UNL1        0.0705
     27 C         138.8724  137.7666  163.0840 C.3     1  UNL1        0.0212
     28 C         140.1968  137.7885  162.3803 C.3     1  UNL1        0.0212
     29 C         140.3703  143.4847  169.4940 C.1     1  UNL1        0.1052
     30 N         140.2482  144.7519  170.2873 N.1     1  UNL1       -0.1907
@<TRIPOS>BOND
     1    19    20    1
     2    20    21    2
     3    20    22   am
     4    22    10    1
     5    10    11   ar
     6    11    12   ar
     7    12    13   ar
     8    13    14   ar
     9    14    15   ar
    10    15    16   ar
    11    16     1    1
    12     1     2   ar
    13     2     3   ar
    14     3    24    1
    15    24    26    1
    16    26    27    1
    17    27    28    1
    18     3     4   ar
    19     4     5   ar
    20     5     6   ar
    21     6     7   ar
    22     7    29    1
    23    29    30    3
    24     7     8   ar
    25     8     9   ar
    26    16    17   ar
    27    17    18   ar
    28    18    10   ar
    29    17    13   ar
    30     9     1   ar
    31    28    26    1
    32     8     4   ar
    33    22    23    1
    34    24    25    1
@<TRIPOS>MOLECULE
*****
 30 34 0 0 0
SMALL
GASTEIGER

@<TRIPOS>ATOM
      1 C         142.4237  141.9870  162.5535 C.ar    1  UNL1        0.1682
      2 C         142.8827  142.3929  161.1844 C.ar    1  UNL1        0.0730
      3 C         142.3115  143.6182  160.5346 C.ar    1  UNL1        0.1346
      4 N         141.2813  144.4376  161.2538 N.ar    1  UNL1       -0.1980
      5 N         140.5438  145.6857  160.8688 N.ar    1  UNL1       -0.1602
      6 C         139.6290  146.0512  162.0000 C.ar    1  UNL1        0.1339
      7 C         139.8010  145.0289  163.0841 C.ar    1  UNL1        0.1250
      8 C         140.8222  144.0317  162.6229 C.ar    1  UNL1        0.1778
      9 N         141.3934  142.8064  163.2727 N.ar    1  UNL1       -0.2068
     10 C         142.1698  140.4107  167.1543 C.ar    1  UNL1        0.0518
     11 C         142.8975  139.1164  167.3672 C.ar    1  UNL1        0.0148
     12 C         143.6003  138.4535  166.2197 C.ar    1  UNL1        0.0044
     13 C         143.5753  139.0848  164.8593 C.ar    1  UNL1        0.0387
     14 C         144.1723  138.6676  163.5480 C.ar    1  UNL1        0.1220
     15 N         143.8136  139.7040  162.5247 N.ar    1  UNL1       -0.1622
     16 N         142.9948  140.7617  163.2035 N.ar    1  UNL1       -0.2120
     17 C         142.8476  140.3791  164.6464 C.ar    1  UNL1        0.0872
     18 C         142.1449  141.0420  165.7939 C.ar    1  UNL1        0.0339
     19 C         139.4058  141.2616  169.8720 C.3     1  UNL1        0.0949
     20 C         140.1085  140.5987  168.7245 C.2     1  UNL1        0.2266
     21 O         139.4526  139.4609  167.9998 O.2     1  UNL1       -0.2748
     22 N         141.4671  141.0736  168.3018 N.am    1  UNL1       -0.2839
     23 H         141.8976  141.8203  168.7775 H       1  UNL1        0.1549
     24 N         142.7705  144.0241  159.1654 N.pl3   1  UNL1       -0.3196
     25 H         142.8293  144.9779  158.9286 H       1  UNL1        0.1481
     26 C         143.1399  142.9770  158.1571 C.3     1  UNL1        0.0705
     27 C         144.1772  142.2850  157.3232 C.3     1  UNL1        0.0212
     28 C         142.7424  141.8549  157.2443 C.3     1  UNL1        0.0212
     29 C         139.0788  145.0076  164.3986 C.1     1  UNL1        0.1052
     30 N         138.3565  144.9864  165.7131 N.1     1  UNL1       -0.1907
@<TRIPOS>BOND
     1    19    20    1
     2    20    21    2
     3    20    22   am
     4    22    10    1
     5    10    11   ar
     6    11    12   ar
     7    12    13   ar
     8    13    14   ar
     9    14    15   ar
    10    15    16   ar
    11    16     1    1
    12     1     2   ar
    13     2     3   ar
    14     3    24    1
    15    24    26    1
    16    26    27    1
    17    27    28    1
    18     3     4   ar
    19     4     5   ar
    20     5     6   ar
    21     6     7   ar
    22     7    29    1
    23    29    30    3
    24     7     8   ar
    25     8     9   ar
    26    16    17   ar
    27    17    18   ar
    28    18    10   ar
    29    17    13   ar
    30     9     1   ar
    31    28    26    1
    32     8     4   ar
    33    22    23    1
    34    24    25    1
