@<TRIPOS>MOLECULE
*****
 34 38 0 0 0
SMALL
GASTEIGER

@<TRIPOS>ATOM
      1 N         141.7073  141.5765  168.9554 N.3     1  UNL1       -0.2752
      2 C         141.2281  142.6004  169.9414 C.3     1  UNL1        0.0578
      3 C         142.4313  143.2718  170.5342 C.3     1  UNL1        0.0173
      4 C         143.6542  142.6629  169.9147 C.3     1  UNL1        0.0173
      5 C         143.2067  141.6151  168.9389 C.3     1  UNL1        0.0578
      6 C         142.4783  140.6419  168.0437 C.3     1  UNL1        0.0203
      7 C         140.9854  140.7174  168.1679 C.3     1  UNL1        0.0250
      8 C         140.3603  141.6966  169.1168 C.3     1  UNL1        0.0203
      9 C         140.1175  139.8135  167.3432 C.ar    1  UNL1       -0.0225
     10 C         138.6910  139.5753  167.7412 C.ar    1  UNL1       -0.0043
     11 C         137.8233  138.6716  166.9166 C.ar    1  UNL1       -0.0004
     12 C         138.3819  138.0059  165.6940 C.ar    1  UNL1        0.0038
     13 C         139.8085  138.2441  165.2960 C.ar    1  UNL1        0.0711
     14 C         140.6762  139.1479  166.1206 C.ar    1  UNL1       -0.0004
     15 C         140.3671  137.5784  164.0734 C.3     1  UNL1        0.4186
     16 F         140.9259  136.9127  162.8508 F       1  UNL1       -0.1659
     17 F         141.5770  137.1590  164.8547 F       1  UNL1       -0.1659
     18 F         139.1573  137.9979  163.2922 F       1  UNL1       -0.1659
     19 C         140.8395  140.6727  168.1308 C.3     1  UNL1        0.0729
     20 C         140.2588  141.1648  166.8383 C.3     1  UNL1        0.0294
     21 C         140.2218  142.6352  166.5444 C.3     1  UNL1        0.0666
     22 S         140.9833  143.1858  165.3752 S.3     1  UNL1       -0.0756
     23 C         143.2755  140.8364  163.3038 C.ar    1  UNL1        0.2029
     24 N         144.2636  141.4365  164.2595 N.ar    1  UNL1       -0.1250
     25 N         143.5252  142.3897  165.1518 N.ar    1  UNL1       -0.1220
     26 C         142.0808  142.3786  164.7475 C.ar    1  UNL1        0.1933
     27 N         141.9265  141.4186  163.6053 N.ar    1  UNL1       -0.2860
     28 C         140.8642  140.8762  162.6957 C.3     1  UNL1        0.1341
     29 C         143.9243  141.5007  160.1753 C.3     1  UNL1        0.0556
     30 C         143.8808  140.1359  160.7962 C.ar    1  UNL1        0.1001
     31 N         144.1279  138.8369  160.0880 N.ar    1  UNL1       -0.2085
     32 C         143.9825  137.7287  161.0884 C.ar    1  UNL1        0.2849
     33 O         143.6455  138.3428  162.4148 O.2     1  UNL1       -0.4283
     34 C         143.5826  139.8306  162.2342 C.ar    1  UNL1        0.1964
@<TRIPOS>BOND
     1    29    30    1
     2    30    31   ar
     3    31    32   ar
     4    32    33   ar
     5    33    34   ar
     6    34    23    1
     7    23    24   ar
     8    24    25   ar
     9    25    26   ar
    10    26    22    1
    11    22    21    1
    12    21    20    1
    13    20    19    1
    14    19     1    1
    15     1     2    1
    16     2     3    1
    17     3     4    1
    18     5     4    1
    19     5     6    1
    20     6     7    1
    21     7     9    1
    22     9    10   ar
    23    10    11   ar
    24    11    12   ar
    25    12    13   ar
    26    13    15    1
    27    15    16    1
    28    15    17    1
    29    15    18    1
    30    13    14   ar
    31     7     8    1
    32    26    27   ar
    33    27    28    1
    34    34    30   ar
    35    27    23   ar
    36     5     1    1
    37    14     9   ar
    38     8     2    1
@<TRIPOS>MOLECULE
*****
 34 38 0 0 0
SMALL
GASTEIGER

@<TRIPOS>ATOM
      1 N         141.7909  141.3004  168.8244 N.3     1  UNL1       -0.2752
      2 C         143.1930  141.8092  168.6662 C.3     1  UNL1        0.0578
      3 C         143.5541  142.5674  169.9091 C.3     1  UNL1        0.0173
      4 C         142.3750  142.5272  170.8354 C.3     1  UNL1        0.0173
      5 C         141.2853  141.7441  170.1651 C.3     1  UNL1        0.0578
      6 C         140.3882  140.9293  169.2649 C.3     1  UNL1        0.0203
      7 C         141.0280  140.5590  167.9597 C.3     1  UNL1        0.0250
      8 C         142.4304  140.9990  167.6603 C.3     1  UNL1        0.0203
      9 C         140.2652  139.7487  166.9538 C.ar    1  UNL1       -0.0225
     10 C         138.8004  139.4935  167.1516 C.ar    1  UNL1       -0.0043
     11 C         138.0377  138.6833  166.1458 C.ar    1  UNL1       -0.0004
     12 C         138.7398  138.1281  164.9422 C.ar    1  UNL1        0.0038
     13 C         140.2047  138.3833  164.7443 C.ar    1  UNL1        0.0711
     14 C         140.9673  139.1935  165.7501 C.ar    1  UNL1       -0.0004
     15 C         140.9068  137.8281  163.5406 C.3     1  UNL1        0.4186
     16 F         141.6089  137.2729  162.3369 F       1  UNL1       -0.1659
     17 F         141.2382  136.5828  164.3084 F       1  UNL1       -0.1659
     18 F         140.5753  139.0734  162.7730 F       1  UNL1       -0.1659
     19 C         141.0282  140.4901  167.8185 C.3     1  UNL1        0.0729
     20 C         140.2541  141.1777  166.7332 C.3     1  UNL1        0.0294
     21 C         140.2142  142.6759  166.6743 C.3     1  UNL1        0.0666
     22 S         140.0232  143.3700  165.3583 S.3     1  UNL1       -0.0756
     23 C         138.2696  141.8445  162.2498 C.ar    1  UNL1        0.2029
     24 N         137.1305  141.9069  163.2236 N.ar    1  UNL1       -0.1250
     25 N         137.6487  142.4859  164.5066 N.ar    1  UNL1       -0.1220
     26 C         139.1081  142.7814  164.3257 C.ar    1  UNL1        0.1933
     27 N         139.4918  142.3850  162.9308 N.ar    1  UNL1       -0.2860
     28 C         140.6921  142.3638  162.0313 C.3     1  UNL1        0.1341
     29 C         137.7255  138.7524  161.3597 C.3     1  UNL1        0.0556
     30 C         137.9488  139.9104  160.4328 C.ar    1  UNL1        0.1001
     31 N         137.9612  139.8503  158.9341 N.ar    1  UNL1       -0.2085
     32 C         138.2190  141.2346  158.4169 C.ar    1  UNL1        0.2849
     33 O         138.3659  142.1500  159.5960 O.2     1  UNL1       -0.4283
     34 C         138.1989  141.3317  160.8420 C.ar    1  UNL1        0.1964
@<TRIPOS>BOND
     1    29    30    1
     2    30    31   ar
     3    31    32   ar
     4    32    33   ar
     5    33    34   ar
     6    34    23    1
     7    23    24   ar
     8    24    25   ar
     9    25    26   ar
    10    26    22    1
    11    22    21    1
    12    21    20    1
    13    20    19    1
    14    19     1    1
    15     1     2    1
    16     2     3    1
    17     3     4    1
    18     5     4    1
    19     5     6    1
    20     6     7    1
    21     7     9    1
    22     9    10   ar
    23    10    11   ar
    24    11    12   ar
    25    12    13   ar
    26    13    15    1
    27    15    16    1
    28    15    17    1
    29    15    18    1
    30    13    14   ar
    31     7     8    1
    32    26    27   ar
    33    27    28    1
    34    34    30   ar
    35    27    23   ar
    36     5     1    1
    37    14     9   ar
    38     8     2    1
@<TRIPOS>MOLECULE
*****
 34 38 0 0 0
SMALL
GASTEIGER

@<TRIPOS>ATOM
      1 N         142.9512  139.7239  164.8037 N.3     1  UNL1       -0.2752
      2 C         142.7859  138.3867  164.1445 C.3     1  UNL1        0.0578
      3 C         143.1631  138.5321  162.7000 C.3     1  UNL1        0.0173
      4 C         143.5616  139.9592  162.4665 C.3     1  UNL1        0.0173
      5 C         143.4306  140.6958  163.7666 C.3     1  UNL1        0.0578
      6 C         143.2089  141.1692  165.1829 C.3     1  UNL1        0.0203
      7 C         142.7302  140.0887  166.1066 C.3     1  UNL1        0.0250
      8 C         142.5187  138.6974  165.5874 C.3     1  UNL1        0.0203
      9 C         142.4629  140.3995  167.5496 C.ar    1  UNL1       -0.0225
     10 C         142.6706  139.3440  168.5950 C.ar    1  UNL1       -0.0043
     11 C         142.4034  139.6548  170.0379 C.ar    1  UNL1       -0.0004
     12 C         141.9286  141.0210  170.4354 C.ar    1  UNL1        0.0038
     13 C         141.7209  142.0765  169.3899 C.ar    1  UNL1        0.0711
     14 C         141.9881  141.7657  167.9471 C.ar    1  UNL1       -0.0004
     15 C         141.2461  143.4427  169.7874 C.3     1  UNL1        0.4186
     16 F         140.7713  144.8090  170.1850 F       1  UNL1       -0.1659
     17 F         142.5642  143.7071  170.4530 F       1  UNL1       -0.1659
     18 F         139.9281  143.1783  169.1219 F       1  UNL1       -0.1659
     19 C         142.6840  140.0346  166.2466 C.3     1  UNL1        0.0729
     20 C         141.3585  140.6037  166.6583 C.3     1  UNL1        0.0294
     21 C         140.0893  139.9050  166.2701 C.3     1  UNL1        0.0666
     22 S         139.0317  140.6422  165.5032 S.3     1  UNL1       -0.0756
     23 C         140.0178  143.5490  163.1277 C.ar    1  UNL1        0.2029
     24 N         139.7394  144.2952  164.3987 N.ar    1  UNL1       -0.1250
     25 N         139.3362  143.2971  165.4434 N.ar    1  UNL1       -0.1220
     26 C         139.3653  141.9341  164.8179 C.ar    1  UNL1        0.1933
     27 N         139.7866  142.0898  163.3867 N.ar    1  UNL1       -0.2860
     28 C         140.0410  141.2553  162.1664 C.3     1  UNL1        0.1341
     29 C         143.0984  144.0745  162.1880 C.3     1  UNL1        0.0556
     30 C         141.8672  144.3971  161.3941 C.ar    1  UNL1        0.1001
     31 N         141.8360  145.0179  160.0290 N.ar    1  UNL1       -0.2085
     32 C         140.4006  145.1601  159.6172 C.ar    1  UNL1        0.2849
     33 O         139.5448  144.6271  160.7279 O.2     1  UNL1       -0.4283
     34 C         140.4512  144.1556  161.8261 C.ar    1  UNL1        0.1964
@<TRIPOS>BOND
     1    29    30    1
     2    30    31   ar
     3    31    32   ar
     4    32    33   ar
     5    33    34   ar
     6    34    23    1
     7    23    24   ar
     8    24    25   ar
     9    25    26   ar
    10    26    22    1
    11    22    21    1
    12    21    20    1
    13    20    19    1
    14    19     1    1
    15     1     2    1
    16     2     3    1
    17     3     4    1
    18     5     4    1
    19     5     6    1
    20     6     7    1
    21     7     9    1
    22     9    10   ar
    23    10    11   ar
    24    11    12   ar
    25    12    13   ar
    26    13    15    1
    27    15    16    1
    28    15    17    1
    29    15    18    1
    30    13    14   ar
    31     7     8    1
    32    26    27   ar
    33    27    28    1
    34    34    30   ar
    35    27    23   ar
    36     5     1    1
    37    14     9   ar
    38     8     2    1
@<TRIPOS>MOLECULE
*****
 34 38 0 0 0
SMALL
GASTEIGER

@<TRIPOS>ATOM
      1 N         141.4971  141.3217  168.4135 N.3     1  UNL1       -0.2752
      2 C         141.9206  142.6103  169.0538 C.3     1  UNL1        0.0578
      3 C         142.8473  142.2824  170.1868 C.3     1  UNL1        0.0173
      4 C         142.9965  140.7910  170.2467 C.3     1  UNL1        0.0173
      5 C         142.1620  140.1973  169.1507 C.3     1  UNL1        0.0578
      6 C         141.2531  139.8875  167.9858 C.3     1  UNL1        0.0203
      7 C         140.6610  141.1092  167.3480 C.3     1  UNL1        0.0250
      8 C         140.9947  142.4706  167.8820 C.3     1  UNL1        0.0203
      9 C         139.7350  140.9695  166.1761 C.ar    1  UNL1       -0.0225
     10 C         139.3532  139.6062  165.6803 C.ar    1  UNL1       -0.0043
     11 C         138.4274  139.4665  164.5085 C.ar    1  UNL1       -0.0004
     12 C         137.8832  140.6900  163.8325 C.ar    1  UNL1        0.0038
     13 C         138.2650  142.0533  164.3283 C.ar    1  UNL1        0.0711
     14 C         139.1909  142.1930  165.5000 C.ar    1  UNL1       -0.0004
     15 C         137.7209  143.2767  163.6522 C.3     1  UNL1        0.4186
     16 F         137.1768  144.5002  162.9761 F       1  UNL1       -0.1659
     17 F         137.7759  142.5705  162.3300 F       1  UNL1       -0.1659
     18 F         137.6659  143.9829  164.9745 F       1  UNL1       -0.1659
     19 C         140.5712  141.1820  167.2416 C.3     1  UNL1        0.0729
     20 C         141.0651  141.4764  165.8562 C.3     1  UNL1        0.0294
     21 C         142.3466  140.8660  165.3714 C.3     1  UNL1        0.0666
     22 S         143.5019  141.7462  164.9965 S.3     1  UNL1       -0.0756
     23 C         142.5034  144.1856  162.1474 C.ar    1  UNL1        0.2029
     24 N         143.4920  145.0181  162.9085 N.ar    1  UNL1       -0.1250
     25 N         143.9864  144.2057  164.0685 N.ar    1  UNL1       -0.1220
     26 C         143.3033  142.8710  164.0242 C.ar    1  UNL1        0.1933
     27 N         142.3867  142.8586  162.8369 N.ar    1  UNL1       -0.2860
     28 C         141.4143  141.9496  162.1454 C.3     1  UNL1        0.1341
     29 C         139.7758  145.9753  162.0654 C.3     1  UNL1        0.0556
     30 C         140.5079  145.4288  160.8756 C.ar    1  UNL1        0.1001
     31 N         140.1147  145.6091  159.4393 N.ar    1  UNL1       -0.2085
     32 C         141.1255  144.8978  158.5894 C.ar    1  UNL1        0.2849
     33 O         142.1433  144.2780  159.5004 O.2     1  UNL1       -0.4283
     34 C         141.7616  144.6062  160.9134 C.ar    1  UNL1        0.1964
@<TRIPOS>BOND
     1    29    30    1
     2    30    31   ar
     3    31    32   ar
     4    32    33   ar
     5    33    34   ar
     6    34    23    1
     7    23    24   ar
     8    24    25   ar
     9    25    26   ar
    10    26    22    1
    11    22    21    1
    12    21    20    1
    13    20    19    1
    14    19     1    1
    15     1     2    1
    16     2     3    1
    17     3     4    1
    18     5     4    1
    19     5     6    1
    20     6     7    1
    21     7     9    1
    22     9    10   ar
    23    10    11   ar
    24    11    12   ar
    25    12    13   ar
    26    13    15    1
    27    15    16    1
    28    15    17    1
    29    15    18    1
    30    13    14   ar
    31     7     8    1
    32    26    27   ar
    33    27    28    1
    34    34    30   ar
    35    27    23   ar
    36     5     1    1
    37    14     9   ar
    38     8     2    1
@<TRIPOS>MOLECULE
*****
 34 38 0 0 0
SMALL
GASTEIGER

@<TRIPOS>ATOM
      1 N         138.6816  139.4944  163.9144 N.3     1  UNL1       -0.2752
      2 C         138.8469  138.0455  163.5630 C.3     1  UNL1        0.0578
      3 C         138.2613  137.8296  162.1991 C.3     1  UNL1        0.0173
      4 C         137.7339  139.1450  161.7075 C.3     1  UNL1        0.0173
      5 C         137.9937  140.1739  162.7677 C.3     1  UNL1        0.0578
      6 C         138.3780  140.9783  163.9860 C.3     1  UNL1        0.0203
      7 C         139.0569  140.1663  165.0489 C.3     1  UNL1        0.0250
      8 C         139.2914  138.7000  164.8375 C.3     1  UNL1        0.0203
      9 C         139.5014  140.8209  166.3234 C.ar    1  UNL1       -0.0225
     10 C         140.0742  142.2069  166.2945 C.ar    1  UNL1       -0.0043
     11 C         140.5187  142.8613  167.5689 C.ar    1  UNL1       -0.0004
     12 C         140.3903  142.1298  168.8721 C.ar    1  UNL1        0.0038
     13 C         139.8175  140.7438  168.9010 C.ar    1  UNL1        0.0711
     14 C         139.3731  140.0894  167.6266 C.ar    1  UNL1       -0.0004
     15 C         139.6892  140.0123  170.2042 C.3     1  UNL1        0.4186
     16 F         139.5609  139.2807  171.5075 F       1  UNL1       -0.1659
     17 F         141.1175  139.5670  170.0949 F       1  UNL1       -0.1659
     18 F         138.2610  140.4575  170.3135 F       1  UNL1       -0.1659
     19 C         139.1260  140.1488  165.1889 C.3     1  UNL1        0.0729
     20 C         140.4935  140.7584  165.2817 C.3     1  UNL1        0.0294
     21 C         141.7067  139.9272  164.9868 C.3     1  UNL1        0.0666
     22 S         142.8980  140.5490  164.3205 S.3     1  UNL1       -0.0756
     23 C         142.1558  143.7074  162.1901 C.ar    1  UNL1        0.2029
     24 N         143.0515  144.2767  163.2500 N.ar    1  UNL1       -0.1250
     25 N         143.4386  143.1629  164.1771 N.ar    1  UNL1       -0.1220
     26 C         142.7821  141.9052  163.6901 C.ar    1  UNL1        0.1933
     27 N         141.9893  142.2417  162.4621 N.ar    1  UNL1       -0.2860
     28 C         141.1038  141.5792  161.4486 C.3     1  UNL1        0.1341
     29 C         139.3393  145.3522  162.2995 C.3     1  UNL1        0.0556
     30 C         140.2409  145.2259  161.1074 C.ar    1  UNL1        0.1001
     31 N         140.0061  145.8336  159.7562 N.ar    1  UNL1       -0.2085
     32 C         141.1556  145.4531  158.8708 C.ar    1  UNL1        0.2849
     33 O         142.1008  144.6103  159.6748 O.2     1  UNL1       -0.4283
     34 C         141.5355  144.4699  161.0571 C.ar    1  UNL1        0.1964
@<TRIPOS>BOND
     1    29    30    1
     2    30    31   ar
     3    31    32   ar
     4    32    33   ar
     5    33    34   ar
     6    34    23    1
     7    23    24   ar
     8    24    25   ar
     9    25    26   ar
    10    26    22    1
    11    22    21    1
    12    21    20    1
    13    20    19    1
    14    19     1    1
    15     1     2    1
    16     2     3    1
    17     3     4    1
    18     5     4    1
    19     5     6    1
    20     6     7    1
    21     7     9    1
    22     9    10   ar
    23    10    11   ar
    24    11    12   ar
    25    12    13   ar
    26    13    15    1
    27    15    16    1
    28    15    17    1
    29    15    18    1
    30    13    14   ar
    31     7     8    1
    32    26    27   ar
    33    27    28    1
    34    34    30   ar
    35    27    23   ar
    36     5     1    1
    37    14     9   ar
    38     8     2    1
@<TRIPOS>MOLECULE
*****
 34 38 0 0 0
SMALL
GASTEIGER

@<TRIPOS>ATOM
      1 N         141.4229  142.0125  168.6722 N.3     1  UNL1       -0.2752
      2 C         140.1947  142.8361  168.9237 C.3     1  UNL1        0.0578
      3 C         140.5147  143.8282  170.0023 C.3     1  UNL1        0.0173
      4 C         141.9407  143.6178  170.4174 C.3     1  UNL1        0.0173
      5 C         142.5020  142.4956  169.5953 C.3     1  UNL1        0.0578
      6 C         142.7914  141.3601  168.6435 C.3     1  UNL1        0.0203
      7 C         141.6199  140.9866  167.7844 C.3     1  UNL1        0.0250
      8 C         140.3215  141.7246  167.9245 C.3     1  UNL1        0.0203
      9 C         141.7467  139.8750  166.7851 C.ar    1  UNL1       -0.0225
     10 C         143.0641  139.1830  166.5963 C.ar    1  UNL1       -0.0043
     11 C         143.1909  138.0715  165.5971 C.ar    1  UNL1       -0.0004
     12 C         142.0005  137.6520  164.7868 C.ar    1  UNL1        0.0038
     13 C         140.6831  138.3440  164.9756 C.ar    1  UNL1        0.0711
     14 C         140.5562  139.4555  165.9747 C.ar    1  UNL1       -0.0004
     15 C         139.4926  137.9245  164.1652 C.3     1  UNL1        0.4186
     16 F         138.3021  137.5050  163.3547 F       1  UNL1       -0.1659
     17 F         140.0211  138.6937  162.9907 F       1  UNL1       -0.1659
     18 F         138.9642  137.1554  165.3396 F       1  UNL1       -0.1659
     19 C         141.5497  140.9010  167.6730 C.3     1  UNL1        0.0729
     20 C         142.0495  141.1904  166.2886 C.3     1  UNL1        0.0294
     21 C         142.1130  142.6052  165.7947 C.3     1  UNL1        0.0666
     22 S         143.3795  143.1314  165.1872 S.3     1  UNL1       -0.0756
     23 C         144.2946  141.2180  161.9366 C.ar    1  UNL1        0.2029
     24 N         145.6511  141.4261  162.5420 N.ar    1  UNL1       -0.1250
     25 N         145.4735  142.1683  163.8334 N.ar    1  UNL1       -0.1220
     26 C         144.0071  142.4188  164.0261 C.ar    1  UNL1        0.1933
     27 N         143.2786  141.8314  162.8538 N.ar    1  UNL1       -0.2860
     28 C         141.8815  141.6735  162.3309 C.3     1  UNL1        0.1341
     29 C         143.8555  138.0080  161.5456 C.3     1  UNL1        0.0556
     30 C         143.8031  139.0436  160.4617 C.ar    1  UNL1        0.1001
     31 N         143.5397  138.7855  159.0077 N.ar    1  UNL1       -0.2085
     32 C         143.5788  140.1014  158.2888 C.ar    1  UNL1        0.2849
     33 O         143.8663  141.1728  159.2985 O.2     1  UNL1       -0.4283
     34 C         144.0050  140.5190  160.6414 C.ar    1  UNL1        0.1964
@<TRIPOS>BOND
     1    29    30    1
     2    30    31   ar
     3    31    32   ar
     4    32    33   ar
     5    33    34   ar
     6    34    23    1
     7    23    24   ar
     8    24    25   ar
     9    25    26   ar
    10    26    22    1
    11    22    21    1
    12    21    20    1
    13    20    19    1
    14    19     1    1
    15     1     2    1
    16     2     3    1
    17     3     4    1
    18     5     4    1
    19     5     6    1
    20     6     7    1
    21     7     9    1
    22     9    10   ar
    23    10    11   ar
    24    11    12   ar
    25    12    13   ar
    26    13    15    1
    27    15    16    1
    28    15    17    1
    29    15    18    1
    30    13    14   ar
    31     7     8    1
    32    26    27   ar
    33    27    28    1
    34    34    30   ar
    35    27    23   ar
    36     5     1    1
    37    14     9   ar
    38     8     2    1
@<TRIPOS>MOLECULE
*****
 34 38 0 0 0
SMALL
GASTEIGER

@<TRIPOS>ATOM
      1 N         141.6889  141.5401  168.7847 N.3     1  UNL1       -0.2752
      2 C         141.1489  142.5514  169.7520 C.3     1  UNL1        0.0578
      3 C         142.3128  143.2377  170.4032 C.3     1  UNL1        0.0173
      4 C         143.5723  142.6506  169.8384 C.3     1  UNL1        0.0173
      5 C         143.1867  141.6014  168.8381 C.3     1  UNL1        0.0578
      6 C         142.5157  140.6221  167.9055 C.3     1  UNL1        0.0203
      7 C         141.0176  140.6744  167.9605 C.3     1  UNL1        0.0250
      8 C         140.3342  141.6390  168.8837 C.3     1  UNL1        0.0203
      9 C         140.2029  139.7620  167.0922 C.ar    1  UNL1       -0.0225
     10 C         138.7722  139.4753  167.4401 C.ar    1  UNL1       -0.0043
     11 C         137.9577  138.5629  166.5718 C.ar    1  UNL1       -0.0004
     12 C         138.5737  137.9372  165.3557 C.ar    1  UNL1        0.0038
     13 C         140.0043  138.2239  165.0078 C.ar    1  UNL1        0.0711
     14 C         140.8189  139.1363  165.8760 C.ar    1  UNL1       -0.0004
     15 C         140.6203  137.5982  163.7916 C.3     1  UNL1        0.4186
     16 F         141.2364  136.9725  162.5754 F       1  UNL1       -0.1659
     17 F         141.9869  137.8246  164.3674 F       1  UNL1       -0.1659
     18 F         139.2538  137.3718  163.2160 F       1  UNL1       -0.1659
     19 C         140.8743  140.6278  167.9164 C.3     1  UNL1        0.0729
     20 C         140.0916  141.1882  166.7661 C.3     1  UNL1        0.0294
     21 C         140.6094  142.3799  166.0166 C.3     1  UNL1        0.0666
     22 S         139.6669  143.4674  165.5936 S.3     1  UNL1       -0.0756
     23 C         139.4041  143.9877  161.7563 C.ar    1  UNL1        0.2029
     24 N         137.9815  143.6620  162.1026 N.ar    1  UNL1       -0.1250
     25 N         137.9067  143.4275  163.5823 N.ar    1  UNL1       -0.1220
     26 C         139.2832  143.6082  164.1504 C.ar    1  UNL1        0.1933
     27 N         140.2086  143.9544  163.0217 N.ar    1  UNL1       -0.2860
     28 C         141.6546  144.2695  162.7768 C.3     1  UNL1        0.1341
     29 C         140.7810  141.8506  159.7101 C.3     1  UNL1        0.0556
     30 C         140.5628  143.3107  159.4445 C.ar    1  UNL1        0.1001
     31 N         140.9392  144.0448  158.1917 N.ar    1  UNL1       -0.2085
     32 C         140.5390  145.4808  158.3580 C.ar    1  UNL1        0.2849
     33 O         139.9152  145.6342  159.7135 O.2     1  UNL1       -0.4283
     34 C         139.9299  144.2930  160.3850 C.ar    1  UNL1        0.1964
@<TRIPOS>BOND
     1    29    30    1
     2    30    31   ar
     3    31    32   ar
     4    32    33   ar
     5    33    34   ar
     6    34    23    1
     7    23    24   ar
     8    24    25   ar
     9    25    26   ar
    10    26    22    1
    11    22    21    1
    12    21    20    1
    13    20    19    1
    14    19     1    1
    15     1     2    1
    16     2     3    1
    17     3     4    1
    18     5     4    1
    19     5     6    1
    20     6     7    1
    21     7     9    1
    22     9    10   ar
    23    10    11   ar
    24    11    12   ar
    25    12    13   ar
    26    13    15    1
    27    15    16    1
    28    15    17    1
    29    15    18    1
    30    13    14   ar
    31     7     8    1
    32    26    27   ar
    33    27    28    1
    34    34    30   ar
    35    27    23   ar
    36     5     1    1
    37    14     9   ar
    38     8     2    1
@<TRIPOS>MOLECULE
*****
 34 38 0 0 0
SMALL
GASTEIGER

@<TRIPOS>ATOM
      1 N         141.7733  141.2492  168.4206 N.3     1  UNL1       -0.2752
      2 C         142.5765  142.4706  168.7568 C.3     1  UNL1        0.0578
      3 C         143.4703  142.1338  169.9134 C.3     1  UNL1        0.0173
      4 C         143.2194  140.7042  170.2921 C.3     1  UNL1        0.0173
      5 C         142.1706  140.1575  169.3695 C.3     1  UNL1        0.0578
      6 C         141.1208  139.8841  168.3196 C.3     1  UNL1        0.0203
      7 C         140.8275  141.0670  167.4451 C.3     1  UNL1        0.0250
      8 C         141.5553  142.3602  167.6637 C.3     1  UNL1        0.0203
      9 C         139.8062  140.9566  166.3519 C.ar    1  UNL1       -0.0225
     10 C         139.2238  139.6193  166.0019 C.ar    1  UNL1       -0.0043
     11 C         138.2026  139.5089  164.9088 C.ar    1  UNL1       -0.0004
     12 C         137.7637  140.7358  164.1657 C.ar    1  UNL1        0.0038
     13 C         138.3461  142.0731  164.5157 C.ar    1  UNL1        0.0711
     14 C         139.3673  142.1835  165.6088 C.ar    1  UNL1       -0.0004
     15 C         137.9073  143.2999  163.7726 C.3     1  UNL1        0.4186
     16 F         137.4684  144.5268  163.0295 F       1  UNL1       -0.1659
     17 F         137.2922  142.4369  162.7110 F       1  UNL1       -0.1659
     18 F         138.5223  144.1629  164.8342 F       1  UNL1       -0.1659
     19 C         140.7521  141.1388  167.3275 C.3     1  UNL1        0.0729
     20 C         141.1816  140.7968  165.9315 C.3     1  UNL1        0.0294
     21 C         142.6189  140.4765  165.6464 C.3     1  UNL1        0.0666
     22 S         142.9825  139.1742  164.9969 S.3     1  UNL1       -0.0756
     23 C         140.9831  138.3230  161.7809 C.ar    1  UNL1        0.2029
     24 N         140.6001  137.1786  162.6716 N.ar    1  UNL1       -0.1250
     25 N         141.3024  137.3581  163.9848 N.ar    1  UNL1       -0.1220
     26 C         142.1195  138.6135  163.9056 C.ar    1  UNL1        0.1933
     27 N         141.9222  139.2098  162.5434 N.ar    1  UNL1       -0.2860
     28 C         142.3645  140.3906  161.7309 C.3     1  UNL1        0.1341
     29 C         137.9891  139.2663  160.8890 C.3     1  UNL1        0.0556
     30 C         139.1339  138.9757  159.9644 C.ar    1  UNL1        0.1001
     31 N         139.1035  139.0677  158.4676 N.ar    1  UNL1       -0.2085
     32 C         140.4609  138.6909  157.9524 C.ar    1  UNL1        0.2849
     33 O         141.3302  138.3661  159.1308 O.2     1  UNL1       -0.4283
     34 C         140.5101  138.5421  160.3744 C.ar    1  UNL1        0.1964
@<TRIPOS>BOND
     1    29    30    1
     2    30    31   ar
     3    31    32   ar
     4    32    33   ar
     5    33    34   ar
     6    34    23    1
     7    23    24   ar
     8    24    25   ar
     9    25    26   ar
    10    26    22    1
    11    22    21    1
    12    21    20    1
    13    20    19    1
    14    19     1    1
    15     1     2    1
    16     2     3    1
    17     3     4    1
    18     5     4    1
    19     5     6    1
    20     6     7    1
    21     7     9    1
    22     9    10   ar
    23    10    11   ar
    24    11    12   ar
    25    12    13   ar
    26    13    15    1
    27    15    16    1
    28    15    17    1
    29    15    18    1
    30    13    14   ar
    31     7     8    1
    32    26    27   ar
    33    27    28    1
    34    34    30   ar
    35    27    23   ar
    36     5     1    1
    37    14     9   ar
    38     8     2    1
@<TRIPOS>MOLECULE
*****
 34 38 0 0 0
SMALL
GASTEIGER

@<TRIPOS>ATOM
      1 N         140.9605  141.4367  168.9856 N.3     1  UNL1       -0.2752
      2 C         141.4394  140.1789  169.6479 C.3     1  UNL1        0.0578
      3 C         142.0319  140.5503  170.9749 C.3     1  UNL1        0.0173
      4 C         141.9192  142.0377  171.1328 C.3     1  UNL1        0.0173
      5 C         141.2571  142.5856  169.9034 C.3     1  UNL1        0.0578
      6 C         140.5846  142.8478  168.5774 C.3     1  UNL1        0.0203
      7 C         140.3524  141.6061  167.7687 C.3     1  UNL1        0.0250
      8 C         140.7798  140.2716  168.3039 C.3     1  UNL1        0.0203
      9 C         139.6927  141.6988  166.4246 C.ar    1  UNL1       -0.0225
     10 C         139.0308  140.4916  165.8291 C.ar    1  UNL1       -0.0043
     11 C         138.3712  140.5844  164.4852 C.ar    1  UNL1       -0.0004
     12 C         138.3735  141.8843  163.7367 C.ar    1  UNL1        0.0038
     13 C         139.0354  143.0915  164.3322 C.ar    1  UNL1        0.0711
     14 C         139.6950  142.9987  165.6761 C.ar    1  UNL1       -0.0004
     15 C         139.0376  144.3914  163.5837 C.3     1  UNL1        0.4186
     16 F         139.0399  145.6914  162.8352 F       1  UNL1       -0.1659
     17 F         139.9413  144.9876  164.6220 F       1  UNL1       -0.1659
     18 F         138.1340  143.7951  162.5455 F       1  UNL1       -0.1659
     19 C         140.3009  141.5294  167.6416 C.3     1  UNL1        0.0729
     20 C         141.1233  141.8176  166.4208 C.3     1  UNL1        0.0294
     21 C         142.6019  141.5656  166.4359 C.3     1  UNL1        0.0666
     22 S         143.5260  142.4786  165.6860 S.3     1  UNL1       -0.0756
     23 C         144.3900  141.1557  162.1408 C.ar    1  UNL1        0.2029
     24 N         145.7506  141.5274  162.6509 N.ar    1  UNL1       -0.1250
     25 N         145.5927  142.0682  164.0411 N.ar    1  UNL1       -0.1220
     26 C         144.1343  142.0307  164.3901 C.ar    1  UNL1        0.1933
     27 N         143.3910  141.4668  163.2156 N.ar    1  UNL1       -0.2860
     28 C         141.9911  141.1272  162.7970 C.3     1  UNL1        0.1341
     29 C         143.9572  137.9918  161.4684 C.3     1  UNL1        0.0556
     30 C         143.8833  139.1207  160.4834 C.ar    1  UNL1        0.1001
     31 N         143.5975  138.9933  159.0164 N.ar    1  UNL1       -0.2085
     32 C         143.6198  140.3690  158.4187 C.ar    1  UNL1        0.2849
     33 O         143.9194  141.3464  159.5164 O.2     1  UNL1       -0.4283
     34 C         144.0822  140.5749  160.7925 C.ar    1  UNL1        0.1964
@<TRIPOS>BOND
     1    29    30    1
     2    30    31   ar
     3    31    32   ar
     4    32    33   ar
     5    33    34   ar
     6    34    23    1
     7    23    24   ar
     8    24    25   ar
     9    25    26   ar
    10    26    22    1
    11    22    21    1
    12    21    20    1
    13    20    19    1
    14    19     1    1
    15     1     2    1
    16     2     3    1
    17     3     4    1
    18     5     4    1
    19     5     6    1
    20     6     7    1
    21     7     9    1
    22     9    10   ar
    23    10    11   ar
    24    11    12   ar
    25    12    13   ar
    26    13    15    1
    27    15    16    1
    28    15    17    1
    29    15    18    1
    30    13    14   ar
    31     7     8    1
    32    26    27   ar
    33    27    28    1
    34    34    30   ar
    35    27    23   ar
    36     5     1    1
    37    14     9   ar
    38     8     2    1
