@<TRIPOS>MOLECULE
*****
 22 24 0 0 0
SMALL
GASTEIGER

@<TRIPOS>ATOM
      1 C         138.3632  139.0511  165.9396 C.3     1  UNL1        0.0991
      2 N         138.4957  139.1679  164.4500 N.3     1  UNL1       -0.2688
      3 C         139.2846  138.1470  163.6849 C.3     1  UNL1        0.0748
      4 C         139.4171  138.2638  162.1953 C.3     1  UNL1        0.0446
      5 C         138.7607  139.4014  161.4709 C.3     1  UNL1        0.0954
      6 C         139.5496  138.3806  160.7058 C.3     1  UNL1        0.0274
      7 C         139.6821  138.4974  159.2163 C.3     1  UNL1        0.0050
      8 C         139.0256  139.6350  158.4918 C.3     1  UNL1        0.0321
      9 C         138.2367  140.6559  159.2569 C.3     1  UNL1        0.1419
     10 O         138.1042  140.5391  160.7464 O.3     1  UNL1       -0.3584
     11 C         137.9717  140.4223  162.2360 C.3     1  UNL1        0.0446
     12 C         137.8392  140.3055  163.7256 C.3     1  UNL1        0.0748
     13 C         140.9920  141.5182  168.6327 C.ar    1  UNL1       -0.0228
     14 C         141.2080  141.5401  167.1484 C.ar    1  UNL1       -0.0046
     15 C         140.3318  140.7177  166.2508 C.ar    1  UNL1       -0.0032
     16 C         139.2394  139.8735  166.8373 C.ar    1  UNL1       -0.0062
     17 C         139.0233  139.8516  168.3215 C.ar    1  UNL1       -0.0032
     18 C         139.8996  140.6740  169.2192 C.ar    1  UNL1       -0.0046
     19 C         140.7686  143.3499  169.6791 C.3     1  UNL1        0.0044
     20 C         141.8682  142.3406  169.5304 C.3     1  UNL1        0.0189
     21 C         142.9678  141.3313  169.3816 C.3     1  UNL1        0.0044
     22 C         142.7445  143.1630  170.4280 C.3     1  UNL1        0.0044
@<TRIPOS>BOND
     1    19    20    1
     2    20    21    1
     3    20    22    1
     4    20    13    1
     5    13    14   ar
     6    14    15   ar
     7    15    16   ar
     8    16     1    1
     9     1     2    1
    10     2     3    1
    11     3     4    1
    12     4     5    1
    13     5     6    1
    14     6     7    1
    15     7     8    1
    16     8     9    1
    17     9    10    1
    18     5    11    1
    19    11    12    1
    20    16    17   ar
    21    17    18   ar
    22    18    13   ar
    23    12     2    1
    24    10     5    1
@<TRIPOS>MOLECULE
*****
 22 24 0 0 0
SMALL
GASTEIGER

@<TRIPOS>ATOM
      1 C         138.3271  139.1053  165.8860 C.3     1  UNL1        0.0991
      2 N         138.4757  139.2078  164.3968 N.3     1  UNL1       -0.2688
      3 C         137.8198  140.3333  163.6533 C.3     1  UNL1        0.0748
      4 C         137.9684  140.4358  162.1642 C.3     1  UNL1        0.0446
      5 C         138.7729  139.4127  161.4186 C.3     1  UNL1        0.0954
      6 C         138.1170  140.5382  160.6751 C.3     1  UNL1        0.0274
      7 C         138.2656  140.6406  159.1860 C.3     1  UNL1        0.0050
      8 C         139.0701  139.6175  158.4404 C.3     1  UNL1        0.0321
      9 C         139.7261  138.4920  159.1839 C.3     1  UNL1        0.1419
     10 O         139.5775  138.3895  160.6730 O.3     1  UNL1       -0.3584
     11 C         139.4289  138.2871  162.1622 C.3     1  UNL1        0.0446
     12 C         139.2803  138.1847  163.6512 C.3     1  UNL1        0.0748
     13 C         140.9650  141.5569  168.5843 C.ar    1  UNL1       -0.0228
     14 C         139.9171  140.6596  169.1732 C.ar    1  UNL1       -0.0046
     15 C         139.0379  139.8424  168.2738 C.ar    1  UNL1       -0.0032
     16 C         139.2064  139.9225  166.7854 C.ar    1  UNL1       -0.0062
     17 C         140.2542  140.8198  166.1965 C.ar    1  UNL1       -0.0032
     18 C         141.1336  141.6371  167.0960 C.ar    1  UNL1       -0.0046
     19 C         142.9639  141.3978  169.2763 C.3     1  UNL1        0.0044
     20 C         141.8443  142.3741  169.4837 C.3     1  UNL1        0.0189
     21 C         140.7247  143.3505  169.6912 C.3     1  UNL1        0.0044
     22 C         142.7236  143.1913  170.3832 C.3     1  UNL1        0.0044
@<TRIPOS>BOND
     1    19    20    1
     2    20    21    1
     3    20    22    1
     4    20    13    1
     5    13    14   ar
     6    14    15   ar
     7    15    16   ar
     8    16     1    1
     9     1     2    1
    10     2     3    1
    11     3     4    1
    12     4     5    1
    13     5     6    1
    14     6     7    1
    15     7     8    1
    16     8     9    1
    17     9    10    1
    18     5    11    1
    19    11    12    1
    20    16    17   ar
    21    17    18   ar
    22    18    13   ar
    23    12     2    1
    24    10     5    1
@<TRIPOS>MOLECULE
*****
 22 24 0 0 0
SMALL
GASTEIGER

@<TRIPOS>ATOM
      1 C         139.0118  137.6051  163.8956 C.3     1  UNL1        0.0991
      2 N         138.9917  138.1875  162.5134 N.3     1  UNL1       -0.2688
      3 C         140.1827  138.0291  161.6154 C.3     1  UNL1        0.0748
      4 C         140.1626  138.6115  160.2332 C.3     1  UNL1        0.0446
      5 C         138.9515  139.3524  159.7491 C.3     1  UNL1        0.0954
      6 C         140.1425  139.1939  158.8511 C.3     1  UNL1        0.0274
      7 C         140.1224  139.7764  157.4689 C.3     1  UNL1        0.0050
      8 C         138.9113  140.5172  156.9848 C.3     1  UNL1        0.0321
      9 C         137.7203  140.6756  157.8828 C.3     1  UNL1        0.1419
     10 O         137.7404  140.0932  159.2649 O.3     1  UNL1       -0.3584
     11 C         137.7605  139.5108  160.6471 C.3     1  UNL1        0.0446
     12 C         137.7806  138.9284  162.0293 C.3     1  UNL1        0.0748
     13 C         139.6643  140.2799  167.4551 C.ar    1  UNL1       -0.0228
     14 C         138.4708  139.3725  167.4075 C.ar    1  UNL1       -0.0046
     15 C         138.2533  138.4809  166.2210 C.ar    1  UNL1       -0.0032
     16 C         139.2293  138.4967  165.0821 C.ar    1  UNL1       -0.0062
     17 C         140.4228  139.4040  165.1296 C.ar    1  UNL1       -0.0032
     18 C         140.6403  140.2957  166.3161 C.ar    1  UNL1       -0.0046
     19 C         139.1121  140.2140  169.5021 C.3     1  UNL1        0.0044
     20 C         139.8818  141.1715  168.6415 C.3     1  UNL1        0.0189
     21 C         140.6515  142.1290  167.7809 C.3     1  UNL1        0.0044
     22 C         140.0993  142.0631  169.8280 C.3     1  UNL1        0.0044
@<TRIPOS>BOND
     1    19    20    1
     2    20    21    1
     3    20    22    1
     4    20    13    1
     5    13    14   ar
     6    14    15   ar
     7    15    16   ar
     8    16     1    1
     9     1     2    1
    10     2     3    1
    11     3     4    1
    12     4     5    1
    13     5     6    1
    14     6     7    1
    15     7     8    1
    16     8     9    1
    17     9    10    1
    18     5    11    1
    19    11    12    1
    20    16    17   ar
    21    17    18   ar
    22    18    13   ar
    23    12     2    1
    24    10     5    1
@<TRIPOS>MOLECULE
*****
 22 24 0 0 0
SMALL
GASTEIGER

@<TRIPOS>ATOM
      1 C         143.5449  138.5892  166.1657 C.3     1  UNL1        0.0991
      2 N         143.3539  138.6999  164.6820 N.3     1  UNL1       -0.2688
      3 C         144.3590  139.4393  163.8495 C.3     1  UNL1        0.0748
      4 C         144.1680  139.5500  162.3658 C.3     1  UNL1        0.0446
      5 C         142.9719  138.9211  161.7146 C.3     1  UNL1        0.0954
      6 C         143.9770  139.6606  160.8822 C.3     1  UNL1        0.0274
      7 C         143.7860  139.7712  159.3985 C.3     1  UNL1        0.0050
      8 C         142.5899  139.1423  158.7474 C.3     1  UNL1        0.0321
      9 C         141.5849  138.4028  159.5798 C.3     1  UNL1        0.1419
     10 O         141.7759  138.2922  161.0635 O.3     1  UNL1       -0.3584
     11 C         141.9669  138.1816  162.5472 C.3     1  UNL1        0.0446
     12 C         142.1579  138.0710  164.0308 C.3     1  UNL1        0.0748
     13 C         141.2138  141.2579  168.9396 C.ar    1  UNL1       -0.0228
     14 C         141.3679  141.6298  167.4945 C.ar    1  UNL1       -0.0046
     15 C         142.1449  140.7402  166.5699 C.ar    1  UNL1       -0.0032
     16 C         142.7679  139.4788  167.0903 C.ar    1  UNL1       -0.0062
     17 C         142.6139  139.1070  168.5353 C.ar    1  UNL1       -0.0032
     18 C         141.8368  139.9965  169.4600 C.ar    1  UNL1       -0.0046
     19 C         139.3679  141.1009  169.9728 C.3     1  UNL1        0.0044
     20 C         140.4368  142.1475  169.8642 C.3     1  UNL1        0.0189
     21 C         141.5058  143.1941  169.7556 C.3     1  UNL1        0.0044
     22 C         139.6598  143.0371  170.7887 C.3     1  UNL1        0.0044
@<TRIPOS>BOND
     1    19    20    1
     2    20    21    1
     3    20    22    1
     4    20    13    1
     5    13    14   ar
     6    14    15   ar
     7    15    16   ar
     8    16     1    1
     9     1     2    1
    10     2     3    1
    11     3     4    1
    12     4     5    1
    13     5     6    1
    14     6     7    1
    15     7     8    1
    16     8     9    1
    17     9    10    1
    18     5    11    1
    19    11    12    1
    20    16    17   ar
    21    17    18   ar
    22    18    13   ar
    23    12     2    1
    24    10     5    1
@<TRIPOS>MOLECULE
*****
 22 24 0 0 0
SMALL
GASTEIGER

@<TRIPOS>ATOM
      1 C         138.0236  143.7891  163.3785 C.3     1  UNL1        0.0991
      2 N         138.7368  143.9756  162.0721 N.3     1  UNL1       -0.2688
      3 C         138.5916  142.9517  160.9855 C.3     1  UNL1        0.0748
      4 C         139.3047  143.1382  159.6791 C.3     1  UNL1        0.0446
      5 C         140.1630  144.3486  159.4593 C.3     1  UNL1        0.0954
      6 C         140.0179  143.3248  158.3727 C.3     1  UNL1        0.0274
      7 C         140.7310  143.5113  157.0664 C.3     1  UNL1        0.0050
      8 C         141.5893  144.7217  156.8466 C.3     1  UNL1        0.0321
      9 C         141.7344  145.7455  157.9331 C.3     1  UNL1        0.1419
     10 O         141.0213  145.5590  159.2395 O.3     1  UNL1       -0.3584
     11 C         140.3082  145.3725  160.5459 C.3     1  UNL1        0.0446
     12 C         139.5951  145.1860  161.8523 C.3     1  UNL1        0.0748
     13 C         139.9982  141.5022  166.7134 C.ar    1  UNL1       -0.0228
     14 C         139.0871  140.7939  165.7550 C.ar    1  UNL1       -0.0046
     15 C         138.4289  141.5562  164.6435 C.ar    1  UNL1       -0.0032
     16 C         138.6818  143.0268  164.4901 C.ar    1  UNL1       -0.0062
     17 C         139.5928  143.7351  165.4484 C.ar    1  UNL1       -0.0032
     18 C         140.2511  142.9728  166.5600 C.ar    1  UNL1       -0.0046
     19 C         139.4027  139.9395  168.0184 C.3     1  UNL1        0.0044
     20 C         140.6564  140.7399  167.8250 C.3     1  UNL1        0.0189
     21 C         141.9101  141.5404  167.6315 C.3     1  UNL1        0.0044
     22 C         141.3146  139.9776  168.9366 C.3     1  UNL1        0.0044
@<TRIPOS>BOND
     1    19    20    1
     2    20    21    1
     3    20    22    1
     4    20    13    1
     5    13    14   ar
     6    14    15   ar
     7    15    16   ar
     8    16     1    1
     9     1     2    1
    10     2     3    1
    11     3     4    1
    12     4     5    1
    13     5     6    1
    14     6     7    1
    15     7     8    1
    16     8     9    1
    17     9    10    1
    18     5    11    1
    19    11    12    1
    20    16    17   ar
    21    17    18   ar
    22    18    13   ar
    23    12     2    1
    24    10     5    1
@<TRIPOS>MOLECULE
*****
 22 24 0 0 0
SMALL
GASTEIGER

@<TRIPOS>ATOM
      1 C         138.4426  139.3038  164.9033 C.3     1  UNL1        0.0991
      2 N         139.1062  139.0572  163.5808 N.3     1  UNL1       -0.2688
      3 C         138.3429  139.2709  162.3073 C.3     1  UNL1        0.0748
      4 C         139.0065  139.0243  160.9848 C.3     1  UNL1        0.0446
      5 C         140.4334  138.5641  160.9359 C.3     1  UNL1        0.0954
      6 C         139.6701  138.7777  159.6624 C.3     1  UNL1        0.0274
      7 C         140.3337  138.5311  158.3400 C.3     1  UNL1        0.0050
      8 C         141.7606  138.0709  158.2911 C.3     1  UNL1        0.0321
      9 C         142.5238  137.8572  159.5646 C.3     1  UNL1        0.1419
     10 O         141.8602  138.1038  160.8870 O.3     1  UNL1       -0.3584
     11 C         141.1966  138.3504  162.2095 C.3     1  UNL1        0.0446
     12 C         140.5330  138.5970  163.5319 C.3     1  UNL1        0.0748
     13 C         140.5660  141.6848  168.0769 C.ar    1  UNL1       -0.0228
     14 C         140.0048  140.3326  168.4034 C.ar    1  UNL1       -0.0046
     15 C         139.2970  139.5389  167.3455 C.ar    1  UNL1       -0.0032
     16 C         139.1503  140.0974  165.9612 C.ar    1  UNL1       -0.0062
     17 C         139.7115  141.4496  165.6346 C.ar    1  UNL1       -0.0032
     18 C         140.4193  142.2434  166.6925 C.ar    1  UNL1       -0.0046
     19 C         139.9921  142.5943  169.9054 C.3     1  UNL1        0.0044
     20 C         141.2737  142.4785  169.1348 C.3     1  UNL1        0.0189
     21 C         142.5554  142.3626  168.3642 C.3     1  UNL1        0.0044
     22 C         141.9815  143.2721  170.1926 C.3     1  UNL1        0.0044
@<TRIPOS>BOND
     1    19    20    1
     2    20    21    1
     3    20    22    1
     4    20    13    1
     5    13    14   ar
     6    14    15   ar
     7    15    16   ar
     8    16     1    1
     9     1     2    1
    10     2     3    1
    11     3     4    1
    12     4     5    1
    13     5     6    1
    14     6     7    1
    15     7     8    1
    16     8     9    1
    17     9    10    1
    18     5    11    1
    19    11    12    1
    20    16    17   ar
    21    17    18   ar
    22    18    13   ar
    23    12     2    1
    24    10     5    1
@<TRIPOS>MOLECULE
*****
 22 24 0 0 0
SMALL
GASTEIGER

@<TRIPOS>ATOM
      1 C         144.1328  139.1011  164.1652 C.3     1  UNL1        0.0991
      2 N         143.3110  138.9492  162.9195 N.3     1  UNL1       -0.2688
      3 C         141.8439  139.2603  162.9463 C.3     1  UNL1        0.0748
      4 C         141.0221  139.1084  161.7006 C.3     1  UNL1        0.0446
      5 C         141.6675  138.6453  160.4282 C.3     1  UNL1        0.0954
      6 C         140.2004  138.9564  160.4550 C.3     1  UNL1        0.0274
      7 C         139.3787  138.8045  159.2093 C.3     1  UNL1        0.0050
      8 C         140.0241  138.3413  157.9369 C.3     1  UNL1        0.0321
      9 C         141.4912  138.0302  157.9102 C.3     1  UNL1        0.1419
     10 O         142.3129  138.1821  159.1558 O.3     1  UNL1       -0.3584
     11 C         143.1347  138.3341  160.4015 C.3     1  UNL1        0.0446
     12 C         143.9564  138.4860  161.6471 C.3     1  UNL1        0.0748
     13 C         142.5901  141.5791  167.5901 C.ar    1  UNL1       -0.0228
     14 C         143.1928  142.2494  166.3911 C.ar    1  UNL1       -0.0046
     15 C         143.7070  141.4234  165.2495 C.ar    1  UNL1       -0.0032
     16 C         143.6186  139.9271  165.3068 C.ar    1  UNL1       -0.0062
     17 C         143.0160  139.2568  166.5058 C.ar    1  UNL1       -0.0032
     18 C         142.5017  140.0828  167.6475 C.ar    1  UNL1       -0.0046
     19 C         140.7590  142.5556  168.0297 C.3     1  UNL1        0.0044
     20 C         142.0759  142.4050  168.7317 C.3     1  UNL1        0.0189
     21 C         143.3929  142.2545  169.4338 C.3     1  UNL1        0.0044
     22 C         141.5618  143.2310  169.8733 C.3     1  UNL1        0.0044
@<TRIPOS>BOND
     1    19    20    1
     2    20    21    1
     3    20    22    1
     4    20    13    1
     5    13    14   ar
     6    14    15   ar
     7    15    16   ar
     8    16     1    1
     9     1     2    1
    10     2     3    1
    11     3     4    1
    12     4     5    1
    13     5     6    1
    14     6     7    1
    15     7     8    1
    16     8     9    1
    17     9    10    1
    18     5    11    1
    19    11    12    1
    20    16    17   ar
    21    17    18   ar
    22    18    13   ar
    23    12     2    1
    24    10     5    1
@<TRIPOS>MOLECULE
*****
 22 24 0 0 0
SMALL
GASTEIGER

@<TRIPOS>ATOM
      1 C         143.8509  138.7770  164.5799 C.3     1  UNL1        0.0991
      2 N         143.1317  138.6876  163.2666 N.3     1  UNL1       -0.2688
      3 C         143.9065  138.4719  162.0004 C.3     1  UNL1        0.0748
      4 C         143.1873  138.3825  160.6870 C.3     1  UNL1        0.0446
      5 C         141.6934  138.5089  160.6399 C.3     1  UNL1        0.0954
      6 C         142.4681  138.2931  159.3738 C.3     1  UNL1        0.0274
      7 C         141.7489  138.2038  158.0605 C.3     1  UNL1        0.0050
      8 C         140.2550  138.3302  158.0134 C.3     1  UNL1        0.0321
      9 C         139.4803  138.5460  159.2795 C.3     1  UNL1        0.1419
     10 O         140.1994  138.6353  160.5928 O.3     1  UNL1       -0.3584
     11 C         140.9186  138.7247  161.9062 C.3     1  UNL1        0.0446
     12 C         141.6378  138.8141  163.2194 C.3     1  UNL1        0.0748
     13 C         142.3655  141.5789  167.7725 C.ar    1  UNL1       -0.0228
     14 C         142.3268  140.0965  167.9984 C.ar    1  UNL1       -0.0046
     15 C         142.8219  139.1625  166.9342 C.ar    1  UNL1       -0.0032
     16 C         143.3558  139.7109  165.6441 C.ar    1  UNL1       -0.0062
     17 C         143.3945  141.1933  165.4182 C.ar    1  UNL1       -0.0032
     18 C         142.8993  142.1273  166.4824 C.ar    1  UNL1       -0.0046
     19 C         143.1771  142.3804  169.5610 C.3     1  UNL1        0.0044
     20 C         141.8703  142.5129  168.8367 C.3     1  UNL1        0.0189
     21 C         140.5635  142.6454  168.1124 C.3     1  UNL1        0.0044
     22 C         141.3752  143.4468  169.9009 C.3     1  UNL1        0.0044
@<TRIPOS>BOND
     1    19    20    1
     2    20    21    1
     3    20    22    1
     4    20    13    1
     5    13    14   ar
     6    14    15   ar
     7    15    16   ar
     8    16     1    1
     9     1     2    1
    10     2     3    1
    11     3     4    1
    12     4     5    1
    13     5     6    1
    14     6     7    1
    15     7     8    1
    16     8     9    1
    17     9    10    1
    18     5    11    1
    19    11    12    1
    20    16    17   ar
    21    17    18   ar
    22    18    13   ar
    23    12     2    1
    24    10     5    1
@<TRIPOS>MOLECULE
*****
 22 24 0 0 0
SMALL
GASTEIGER

@<TRIPOS>ATOM
      1 C         144.7850  139.5709  163.9100 C.3     1  UNL1        0.0991
      2 N         144.2932  139.4228  162.5006 N.3     1  UNL1       -0.2688
      3 C         144.2761  140.6096  161.5835 C.3     1  UNL1        0.0748
      4 C         143.7844  140.4614  160.1741 C.3     1  UNL1        0.0446
      5 C         143.3097  139.1264  159.6819 C.3     1  UNL1        0.0954
      6 C         143.2926  140.3132  158.7649 C.3     1  UNL1        0.0274
      7 C         142.8009  140.1650  157.3556 C.3     1  UNL1        0.0050
      8 C         142.3262  138.8299  156.8633 C.3     1  UNL1        0.0321
      9 C         142.3433  137.6431  157.7804 C.3     1  UNL1        0.1419
     10 O         142.8350  137.7913  159.1897 O.3     1  UNL1       -0.3584
     11 C         143.3268  137.9395  160.5991 C.3     1  UNL1        0.0446
     12 C         143.8186  138.0877  162.0084 C.3     1  UNL1        0.0748
     13 C         142.2670  141.7213  166.9572 C.ar    1  UNL1       -0.0228
     14 C         142.1846  140.2285  166.8349 C.ar    1  UNL1       -0.0046
     15 C         143.0239  139.5118  165.8191 C.ar    1  UNL1       -0.0032
     16 C         143.9457  140.2877  164.9257 C.ar    1  UNL1       -0.0062
     17 C         144.0282  141.7804  165.0480 C.ar    1  UNL1       -0.0032
     18 C         143.1888  142.4972  166.0638 C.ar    1  UNL1       -0.0046
     19 C         140.2993  142.5132  166.9876 C.3     1  UNL1        0.0044
     20 C         141.4277  142.4380  167.9730 C.3     1  UNL1        0.0189
     21 C         142.5561  142.3629  168.9584 C.3     1  UNL1        0.0044
     22 C         140.5884  143.1548  168.9887 C.3     1  UNL1        0.0044
@<TRIPOS>BOND
     1    19    20    1
     2    20    21    1
     3    20    22    1
     4    20    13    1
     5    13    14   ar
     6    14    15   ar
     7    15    16   ar
     8    16     1    1
     9     1     2    1
    10     2     3    1
    11     3     4    1
    12     4     5    1
    13     5     6    1
    14     6     7    1
    15     7     8    1
    16     8     9    1
    17     9    10    1
    18     5    11    1
    19    11    12    1
    20    16    17   ar
    21    17    18   ar
    22    18    13   ar
    23    12     2    1
    24    10     5    1
