@<TRIPOS>MOLECULE
*****
 27 29 0 0 0
SMALL
GASTEIGER

@<TRIPOS>ATOM
      1 C         140.8401  142.0216  167.8078 C.ar    1  UNL1        0.0186
      2 C         140.6589  142.8757  169.0275 C.ar    1  UNL1        0.0013
      3 C         139.8256  142.3810  170.1724 C.ar    1  UNL1        0.0001
      4 C         139.1735  141.0323  170.0977 C.ar    1  UNL1        0.0014
      5 C         139.3547  140.1782  168.8780 C.ar    1  UNL1        0.0199
      6 C         140.1880  140.6728  167.7331 C.ar    1  UNL1        0.1222
      7 C         143.3400  143.5055  164.3729 C.ar    1  UNL1       -0.0064
      8 C         141.8432  143.5459  164.2836 C.ar    1  UNL1       -0.0029
      9 C         141.0099  143.0512  165.4285 C.ar    1  UNL1       -0.0002
     10 C         141.6734  142.5162  166.6628 C.ar    1  UNL1        0.0013
     11 C         143.1701  142.4759  166.7522 C.ar    1  UNL1       -0.0002
     12 C         144.0034  142.9705  165.6072 C.ar    1  UNL1       -0.0029
     13 C         144.1733  144.0002  163.2279 C.3     1  UNL1        0.0956
     14 N         144.8249  143.0213  162.2967 N.3     1  UNL1       -0.2937
     15 H         144.0901  142.6592  161.6889 H       1  UNL1        0.1236
     16 C         145.5551  141.8330  162.8487 C.3     1  UNL1        0.0688
     17 C         145.0830  139.6869  164.2349 C.3     1  UNL1        0.0014
     18 C         144.8408  140.5243  163.0142 C.3     1  UNL1        0.0158
     19 C         143.8845  140.0531  161.9591 C.3     1  UNL1        0.0014
     20 S         140.3692  139.8187  166.5133 S.O2    1  UNL1        0.0633
     21 O         139.0589  140.3109  165.9740 O.2     1  UNL1       -0.1528
     22 O         141.6794  139.3264  167.0527 O.2     1  UNL1       -0.1528
     23 N         140.5504  138.9645  165.2937 N.3     1  UNL1       -0.1555
     24 C         141.8118  138.2605  164.8898 C.3     1  UNL1        0.0958
     25 C         141.5430  137.5253  163.6103 C.3     1  UNL1        0.0206
     26 C         140.1154  137.7750  163.2234 C.3     1  UNL1        0.0206
     27 C         139.5020  138.6645  164.2638 C.3     1  UNL1        0.0958
@<TRIPOS>BOND
     1    17    18    1
     2    18    19    1
     3    18    16    1
     4    16    14    1
     5    14    13    1
     6    13     7    1
     7     7     8   ar
     8     8     9   ar
     9     9    10   ar
    10    10     1    1
    11     1     2   ar
    12     2     3   ar
    13     3     4   ar
    14     4     5   ar
    15     5     6   ar
    16     6    20    1
    17    20    21    2
    18    20    22    2
    19    20    23    1
    20    23    24    1
    21    24    25    1
    22    25    26    1
    23    26    27    1
    24    10    11   ar
    25    11    12   ar
    26    12     7   ar
    27     6     1   ar
    28    27    23    1
    29    14    15    1
@<TRIPOS>MOLECULE
*****
 27 29 0 0 0
SMALL
GASTEIGER

@<TRIPOS>ATOM
      1 C         140.9658  142.4355  167.6359 C.ar    1  UNL1        0.0186
      2 C         140.3918  143.0761  168.8647 C.ar    1  UNL1        0.0013
      3 C         141.2659  143.3277  170.0574 C.ar    1  UNL1        0.0001
      4 C         142.7141  142.9387  170.0213 C.ar    1  UNL1        0.0014
      5 C         143.2881  142.2981  168.7925 C.ar    1  UNL1        0.0199
      6 C         142.4140  142.0465  167.5998 C.ar    1  UNL1        0.1222
      7 C         138.3435  141.6808  164.0576 C.ar    1  UNL1       -0.0064
      8 C         139.0483  142.9965  164.2068 C.ar    1  UNL1       -0.0029
      9 C         139.9225  143.2480  165.3995 C.ar    1  UNL1       -0.0002
     10 C         140.0917  142.1840  166.4431 C.ar    1  UNL1        0.0013
     11 C         139.3868  140.8684  166.2940 C.ar    1  UNL1       -0.0002
     12 C         138.5127  140.6168  165.1012 C.ar    1  UNL1       -0.0029
     13 C         137.4693  141.4293  162.8649 C.3     1  UNL1        0.0956
     14 N         137.3942  140.0559  162.2664 N.3     1  UNL1       -0.2937
     15 H         137.2224  139.4085  163.0356 H       1  UNL1        0.1236
     16 C         138.5578  139.5102  161.4929 C.3     1  UNL1        0.0688
     17 C         140.8601  138.3161  161.6471 C.3     1  UNL1        0.0014
     18 C         139.4386  138.4609  162.1038 C.3     1  UNL1        0.0158
     19 C         138.8980  137.5564  163.1712 C.3     1  UNL1        0.0014
     20 S         142.9882  141.4059  166.3709 S.O2    1  UNL1        0.0633
     21 O         142.6358  140.0520  166.9120 O.2     1  UNL1       -0.1528
     22 O         143.3406  142.7598  165.8299 O.2     1  UNL1       -0.1528
     23 N         143.5623  140.7654  165.1421 N.3     1  UNL1       -0.1555
     24 C         144.4449  141.4336  164.1299 C.3     1  UNL1        0.0958
     25 C         144.7828  140.4254  163.0719 C.3     1  UNL1        0.0206
     26 C         144.1089  139.1340  163.4303 C.3     1  UNL1        0.0206
     27 C         143.3546  139.3442  164.7097 C.3     1  UNL1        0.0958
@<TRIPOS>BOND
     1    17    18    1
     2    18    19    1
     3    18    16    1
     4    16    14    1
     5    14    13    1
     6    13     7    1
     7     7     8   ar
     8     8     9   ar
     9     9    10   ar
    10    10     1    1
    11     1     2   ar
    12     2     3   ar
    13     3     4   ar
    14     4     5   ar
    15     5     6   ar
    16     6    20    1
    17    20    21    2
    18    20    22    2
    19    20    23    1
    20    23    24    1
    21    24    25    1
    22    25    26    1
    23    26    27    1
    24    10    11   ar
    25    11    12   ar
    26    12     7   ar
    27     6     1   ar
    28    27    23    1
    29    14    15    1
@<TRIPOS>MOLECULE
*****
 27 29 0 0 0
SMALL
GASTEIGER

@<TRIPOS>ATOM
      1 C         140.5293  140.9941  167.6849 C.ar    1  UNL1        0.0186
      2 C         139.7330  140.6714  168.9144 C.ar    1  UNL1        0.0013
      3 C         140.3718  139.9233  170.0467 C.ar    1  UNL1        0.0001
      4 C         141.8069  139.4979  169.9496 C.ar    1  UNL1        0.0014
      5 C         142.6032  139.8206  168.7201 C.ar    1  UNL1        0.0199
      6 C         141.9644  140.5687  167.5878 C.ar    1  UNL1        0.1222
      7 C         138.6129  143.2383  164.2877 C.ar    1  UNL1       -0.0064
      8 C         138.5017  141.7441  164.3568 C.ar    1  UNL1       -0.0029
      9 C         139.1405  140.9960  165.4892 C.ar    1  UNL1       -0.0002
     10 C         139.8905  141.7422  166.5525 C.ar    1  UNL1        0.0013
     11 C         140.0017  143.2364  166.4834 C.ar    1  UNL1       -0.0002
     12 C         139.3629  143.9845  165.3510 C.ar    1  UNL1       -0.0029
     13 C         137.9741  143.9864  163.1553 C.3     1  UNL1        0.0956
     14 N         138.7427  145.0527  162.4327 N.3     1  UNL1       -0.2937
     15 H         138.0740  145.5507  161.8451 H       1  UNL1        0.1236
     16 C         139.8979  144.6783  161.5522 C.3     1  UNL1        0.0688
     17 C         142.0600  144.9375  162.9694 C.3     1  UNL1        0.0014
     18 C         141.1366  144.0826  162.1530 C.3     1  UNL1        0.0158
     19 C         141.4519  142.6321  161.9375 C.3     1  UNL1        0.0014
     20 S         142.7608  140.8914  166.3582 S.O2    1  UNL1        0.0633
     21 O         143.2152  142.1741  166.9891 O.2     1  UNL1       -0.1528
     22 O         142.3064  139.6087  165.7273 O.2     1  UNL1       -0.1528
     23 N         143.5571  141.2140  165.1287 N.3     1  UNL1       -0.1555
     24 C         144.1986  142.5331  164.8147 C.3     1  UNL1        0.0958
     25 C         144.8897  142.4086  163.4892 C.3     1  UNL1        0.0206
     26 C         144.6754  141.0125  162.9841 C.3     1  UNL1        0.0206
     27 C         143.8518  140.2743  163.9973 C.3     1  UNL1        0.0958
@<TRIPOS>BOND
     1    17    18    1
     2    18    19    1
     3    18    16    1
     4    16    14    1
     5    14    13    1
     6    13     7    1
     7     7     8   ar
     8     8     9   ar
     9     9    10   ar
    10    10     1    1
    11     1     2   ar
    12     2     3   ar
    13     3     4   ar
    14     4     5   ar
    15     5     6   ar
    16     6    20    1
    17    20    21    2
    18    20    22    2
    19    20    23    1
    20    23    24    1
    21    24    25    1
    22    25    26    1
    23    26    27    1
    24    10    11   ar
    25    11    12   ar
    26    12     7   ar
    27     6     1   ar
    28    27    23    1
    29    14    15    1
@<TRIPOS>MOLECULE
*****
 27 29 0 0 0
SMALL
GASTEIGER

@<TRIPOS>ATOM
      1 C         142.0194  140.6136  167.6640 C.ar    1  UNL1        0.0186
      2 C         142.6442  139.8445  168.7901 C.ar    1  UNL1        0.0013
      3 C         141.8255  139.4759  169.9917 C.ar    1  UNL1        0.0001
      4 C         140.3820  139.8765  170.0673 C.ar    1  UNL1        0.0014
      5 C         139.7572  140.6457  168.9413 C.ar    1  UNL1        0.0199
      6 C         140.5759  141.0142  167.7397 C.ar    1  UNL1        0.1222
      7 C         144.4755  141.7193  164.0592 C.ar    1  UNL1       -0.0064
      8 C         143.8915  140.3426  164.1752 C.ar    1  UNL1       -0.0029
      9 C         143.0728  139.9740  165.3769 C.ar    1  UNL1       -0.0002
     10 C         142.8381  140.9822  166.4624 C.ar    1  UNL1        0.0013
     11 C         143.4222  142.3589  166.3464 C.ar    1  UNL1       -0.0002
     12 C         144.2408  142.7274  165.1447 C.ar    1  UNL1       -0.0029
     13 C         145.2942  142.0878  162.8575 C.3     1  UNL1        0.0956
     14 N         144.9050  143.2686  162.0183 N.3     1  UNL1       -0.2937
     15 H         144.8769  144.0759  162.6410 H       1  UNL1        0.1236
     16 C         143.6085  143.2580  161.2641 C.3     1  UNL1        0.0688
     17 C         141.3394  142.3572  162.1530 C.3     1  UNL1        0.0014
     18 C         142.3160  143.4841  161.9911 C.3     1  UNL1        0.0158
     19 C         142.0002  144.8372  162.5563 C.3     1  UNL1        0.0014
     20 S         139.9510  141.7835  166.6136 S.O2    1  UNL1        0.0633
     21 O         139.6196  140.4964  165.9183 O.2     1  UNL1       -0.1528
     22 O         140.2825  143.0705  167.3089 O.2     1  UNL1       -0.1528
     23 N         139.3262  142.5527  165.4877 N.3     1  UNL1       -0.1555
     24 C         138.3821  142.0016  164.4605 C.3     1  UNL1        0.0958
     25 C         138.0082  143.1163  163.5291 C.3     1  UNL1        0.0206
     26 C         138.7211  144.3564  163.9807 C.3     1  UNL1        0.0206
     27 C         139.5357  144.0080  165.1912 C.3     1  UNL1        0.0958
@<TRIPOS>BOND
     1    17    18    1
     2    18    19    1
     3    18    16    1
     4    16    14    1
     5    14    13    1
     6    13     7    1
     7     7     8   ar
     8     8     9   ar
     9     9    10   ar
    10    10     1    1
    11     1     2   ar
    12     2     3   ar
    13     3     4   ar
    14     4     5   ar
    15     5     6   ar
    16     6    20    1
    17    20    21    2
    18    20    22    2
    19    20    23    1
    20    23    24    1
    21    24    25    1
    22    25    26    1
    23    26    27    1
    24    10    11   ar
    25    11    12   ar
    26    12     7   ar
    27     6     1   ar
    28    27    23    1
    29    14    15    1
@<TRIPOS>MOLECULE
*****
 27 29 0 0 0
SMALL
GASTEIGER

@<TRIPOS>ATOM
      1 C         142.3234  141.8562  167.5553 C.ar    1  UNL1        0.0186
      2 C         143.2585  142.1033  168.7018 C.ar    1  UNL1        0.0013
      3 C         142.7804  142.8492  169.9122 C.ar    1  UNL1        0.0001
      4 C         141.3672  143.3479  169.9762 C.ar    1  UNL1        0.0014
      5 C         140.4321  143.1007  168.8297 C.ar    1  UNL1        0.0199
      6 C         140.9102  142.3548  167.6193 C.ar    1  UNL1        0.1222
      7 C         143.7577  139.6186  163.9241 C.ar    1  UNL1       -0.0064
      8 C         143.2987  138.8646  165.1368 C.ar    1  UNL1       -0.0029
      9 C         142.8206  139.6105  166.3472 C.ar    1  UNL1       -0.0002
     10 C         142.8015  141.1103  166.3449 C.ar    1  UNL1        0.0013
     11 C         143.2605  141.8643  165.1322 C.ar    1  UNL1       -0.0002
     12 C         143.7386  141.1184  163.9218 C.ar    1  UNL1       -0.0029
     13 C         144.2358  138.8727  162.7136 C.3     1  UNL1        0.0956
     14 N         143.3844  137.7939  162.1127 N.3     1  UNL1       -0.2937
     15 H         143.9547  137.3273  161.4075 H       1  UNL1        0.1236
     16 C         142.0830  138.1448  161.4543 C.3     1  UNL1        0.0688
     17 C         140.7913  137.1391  163.4717 C.3     1  UNL1        0.0014
     18 C         140.7864  137.8161  162.1332 C.3     1  UNL1        0.0158
     19 C         139.4851  138.1643  161.4735 C.3     1  UNL1        0.0014
     20 S         139.9750  142.1077  166.4728 S.O2    1  UNL1        0.0633
     21 O         139.6195  140.7701  167.0510 O.2     1  UNL1       -0.1528
     22 O         140.3305  143.4453  165.8945 O.2     1  UNL1       -0.1528
     23 N         139.0399  141.8606  165.3263 N.3     1  UNL1       -0.1555
     24 C         138.6931  140.5224  164.7440 C.3     1  UNL1        0.0958
     25 C         137.7262  140.7430  163.6186 C.3     1  UNL1        0.0206
     26 C         137.4754  142.2176  163.5054 C.3     1  UNL1        0.0206
     27 C         138.2873  142.9083  164.5608 C.3     1  UNL1        0.0958
@<TRIPOS>BOND
     1    17    18    1
     2    18    19    1
     3    18    16    1
     4    16    14    1
     5    14    13    1
     6    13     7    1
     7     7     8   ar
     8     8     9   ar
     9     9    10   ar
    10    10     1    1
    11     1     2   ar
    12     2     3   ar
    13     3     4   ar
    14     4     5   ar
    15     5     6   ar
    16     6    20    1
    17    20    21    2
    18    20    22    2
    19    20    23    1
    20    23    24    1
    21    24    25    1
    22    25    26    1
    23    26    27    1
    24    10    11   ar
    25    11    12   ar
    26    12     7   ar
    27     6     1   ar
    28    27    23    1
    29    14    15    1
@<TRIPOS>MOLECULE
*****
 27 29 0 0 0
SMALL
GASTEIGER

@<TRIPOS>ATOM
      1 C         141.0112  142.5589  167.7160 C.ar    1  UNL1        0.0186
      2 C         140.4697  143.1619  168.9782 C.ar    1  UNL1        0.0013
      3 C         141.3535  143.3009  170.1822 C.ar    1  UNL1        0.0001
      4 C         142.7787  142.8369  170.1240 C.ar    1  UNL1        0.0014
      5 C         143.3201  142.2339  168.8618 C.ar    1  UNL1        0.0199
      6 C         142.4364  142.0948  167.6578 C.ar    1  UNL1        0.1222
      7 C         138.3599  142.1417  164.1040 C.ar    1  UNL1       -0.0064
      8 C         138.9992  143.4621  164.4166 C.ar    1  UNL1       -0.0029
      9 C         139.8830  143.6012  165.6206 C.ar    1  UNL1       -0.0002
     10 C         140.1274  142.4198  166.5120 C.ar    1  UNL1        0.0013
     11 C         139.4881  141.0994  166.1994 C.ar    1  UNL1       -0.0002
     12 C         138.6043  140.9604  164.9954 C.ar    1  UNL1       -0.0029
     13 C         137.4761  142.0027  162.9000 C.3     1  UNL1        0.0956
     14 N         137.6229  142.9523  161.7482 N.3     1  UNL1       -0.2937
     15 H         136.7333  142.9497  161.2492 H       1  UNL1        0.1236
     16 C         138.6950  142.7282  160.7232 C.3     1  UNL1        0.0688
     17 C         140.4504  144.6434  160.7010 C.3     1  UNL1        0.0014
     18 C         140.0909  143.2140  160.9794 C.3     1  UNL1        0.0158
     19 C         141.1271  142.2704  161.5140 C.3     1  UNL1        0.0014
     20 S         142.9779  141.4917  166.3956 S.O2    1  UNL1        0.0633
     21 O         142.6304  140.1228  166.9006 O.2     1  UNL1       -0.1528
     22 O         143.3254  142.8607  165.8907 O.2     1  UNL1       -0.1528
     23 N         143.5194  140.8887  165.1335 N.3     1  UNL1       -0.1555
     24 C         144.0169  141.6453  163.9376 C.3     1  UNL1        0.0958
     25 C         144.4634  140.6475  162.9106 C.3     1  UNL1        0.0206
     26 C         144.2420  139.2741  163.4717 C.3     1  UNL1        0.0206
     27 C         143.6585  139.4232  164.8455 C.3     1  UNL1        0.0958
@<TRIPOS>BOND
     1    17    18    1
     2    18    19    1
     3    18    16    1
     4    16    14    1
     5    14    13    1
     6    13     7    1
     7     7     8   ar
     8     8     9   ar
     9     9    10   ar
    10    10     1    1
    11     1     2   ar
    12     2     3   ar
    13     3     4   ar
    14     4     5   ar
    15     5     6   ar
    16     6    20    1
    17    20    21    2
    18    20    22    2
    19    20    23    1
    20    23    24    1
    21    24    25    1
    22    25    26    1
    23    26    27    1
    24    10    11   ar
    25    11    12   ar
    26    12     7   ar
    27     6     1   ar
    28    27    23    1
    29    14    15    1
@<TRIPOS>MOLECULE
*****
 27 29 0 0 0
SMALL
GASTEIGER

@<TRIPOS>ATOM
      1 C         141.9707  141.7998  167.6584 C.ar    1  UNL1        0.0186
      2 C         142.6084  142.5452  168.7932 C.ar    1  UNL1        0.0013
      3 C         143.1499  141.7945  169.9735 C.ar    1  UNL1        0.0001
      4 C         143.0538  140.2983  170.0190 C.ar    1  UNL1        0.0014
      5 C         142.4162  139.5529  168.8843 C.ar    1  UNL1        0.0199
      6 C         141.8746  140.3036  167.7040 C.ar    1  UNL1        0.1222
      7 C         140.3462  144.0521  164.1175 C.ar    1  UNL1       -0.0064
      8 C         139.4772  143.8113  165.3162 C.ar    1  UNL1       -0.0029
      9 C         140.0187  143.0605  166.4965 C.ar    1  UNL1       -0.0002
     10 C         141.4292  142.5506  166.4781 C.ar    1  UNL1        0.0013
     11 C         142.2982  142.7914  165.2795 C.ar    1  UNL1       -0.0002
     12 C         141.7567  143.5422  164.0992 C.ar    1  UNL1       -0.0029
     13 C         139.8047  144.8029  162.9372 C.3     1  UNL1        0.0956
     14 N         138.5058  144.3850  162.3142 N.3     1  UNL1       -0.2937
     15 H         137.8214  144.3308  163.0685 H       1  UNL1        0.1236
     16 C         138.4186  143.0933  161.5567 C.3     1  UNL1        0.0688
     17 C         137.4148  141.3058  163.1528 C.3     1  UNL1        0.0014
     18 C         138.5394  141.7873  162.2848 C.3     1  UNL1        0.0158
     19 C         139.7847  140.9629  162.1447 C.3     1  UNL1        0.0014
     20 S         141.2370  139.5581  166.5692 S.O2    1  UNL1        0.0633
     21 O         139.8968  139.7027  167.2272 O.2     1  UNL1       -0.1528
     22 O         142.5772  139.4135  165.9112 O.2     1  UNL1       -0.1528
     23 N         140.5994  138.8127  165.4344 N.3     1  UNL1       -0.1555
     24 C         141.3231  138.0944  164.3342 C.3     1  UNL1        0.0958
     25 C         140.2972  137.4924  163.4204 C.3     1  UNL1        0.0206
     26 C         138.9394  137.8386  163.9559 C.3     1  UNL1        0.0206
     27 C         139.1262  138.6545  165.2006 C.3     1  UNL1        0.0958
@<TRIPOS>BOND
     1    17    18    1
     2    18    19    1
     3    18    16    1
     4    16    14    1
     5    14    13    1
     6    13     7    1
     7     7     8   ar
     8     8     9   ar
     9     9    10   ar
    10    10     1    1
    11     1     2   ar
    12     2     3   ar
    13     3     4   ar
    14     4     5   ar
    15     5     6   ar
    16     6    20    1
    17    20    21    2
    18    20    22    2
    19    20    23    1
    20    23    24    1
    21    24    25    1
    22    25    26    1
    23    26    27    1
    24    10    11   ar
    25    11    12   ar
    26    12     7   ar
    27     6     1   ar
    28    27    23    1
    29    14    15    1
@<TRIPOS>MOLECULE
*****
 27 29 0 0 0
SMALL
GASTEIGER

@<TRIPOS>ATOM
      1 C         140.2822  140.7796  167.9096 C.ar    1  UNL1        0.0186
      2 C         139.6718  140.3061  169.1954 C.ar    1  UNL1        0.0013
      3 C         139.4728  141.2671  170.3298 C.ar    1  UNL1        0.0001
      4 C         139.8840  142.7016  170.1784 C.ar    1  UNL1        0.0014
      5 C         140.4944  143.1751  168.8927 C.ar    1  UNL1        0.0199
      6 C         140.6934  142.2141  167.7583 C.ar    1  UNL1        0.1222
      7 C         140.8794  137.8966  164.5064 C.ar    1  UNL1       -0.0064
      8 C         142.0298  138.2476  165.4027 C.ar    1  UNL1       -0.0029
      9 C         141.8307  139.2086  166.5371 C.ar    1  UNL1       -0.0002
     10 C         140.4812  139.8186  166.7752 C.ar    1  UNL1        0.0013
     11 C         139.3309  139.4677  165.8789 C.ar    1  UNL1       -0.0002
     12 C         139.5299  138.5067  164.7445 C.ar    1  UNL1       -0.0029
     13 C         141.0784  136.9357  163.3720 C.3     1  UNL1        0.0956
     14 N         141.6510  137.4179  162.0722 N.3     1  UNL1       -0.2937
     15 H         141.7129  136.6057  161.4583 H       1  UNL1        0.1236
     16 C         142.9947  138.0841  162.0458 C.3     1  UNL1        0.0688
     17 C         141.8443  140.4123  162.1284 C.3     1  UNL1        0.0014
     18 C         143.0895  139.5811  162.0338 C.3     1  UNL1        0.0158
     19 C         144.4293  140.2470  161.9272 C.3     1  UNL1        0.0014
     20 S         141.3038  142.6877  166.4725 S.O2    1  UNL1        0.0633
     21 O         139.9357  142.9760  165.9292 O.2     1  UNL1       -0.1528
     22 O         142.6719  142.3995  167.0158 O.2     1  UNL1       -0.1528
     23 N         141.9142  143.1613  165.1868 N.3     1  UNL1       -0.1555
     24 C         141.2313  143.9895  164.1390 C.3     1  UNL1        0.0958
     25 C         142.2097  144.2299  163.0277 C.3     1  UNL1        0.0206
     26 C         143.4973  143.5502  163.3887 C.3     1  UNL1        0.0206
     27 C         143.3146  142.8898  164.7230 C.3     1  UNL1        0.0958
@<TRIPOS>BOND
     1    17    18    1
     2    18    19    1
     3    18    16    1
     4    16    14    1
     5    14    13    1
     6    13     7    1
     7     7     8   ar
     8     8     9   ar
     9     9    10   ar
    10    10     1    1
    11     1     2   ar
    12     2     3   ar
    13     3     4   ar
    14     4     5   ar
    15     5     6   ar
    16     6    20    1
    17    20    21    2
    18    20    22    2
    19    20    23    1
    20    23    24    1
    21    24    25    1
    22    25    26    1
    23    26    27    1
    24    10    11   ar
    25    11    12   ar
    26    12     7   ar
    27     6     1   ar
    28    27    23    1
    29    14    15    1
@<TRIPOS>MOLECULE
*****
 27 29 0 0 0
SMALL
GASTEIGER

@<TRIPOS>ATOM
      1 C         139.8324  139.9621  167.4988 C.ar    1  UNL1        0.0186
      2 C         138.8388  139.9882  168.6221 C.ar    1  UNL1        0.0013
      3 C         139.2772  140.3792  170.0023 C.ar    1  UNL1        0.0001
      4 C         140.7092  140.7441  170.2591 C.ar    1  UNL1        0.0014
      5 C         141.7028  140.7181  169.1358 C.ar    1  UNL1        0.0199
      6 C         141.2644  140.3271  167.7556 C.ar    1  UNL1        0.1222
      7 C         138.5172  138.7891  163.3582 C.ar    1  UNL1       -0.0064
      8 C         139.0042  137.7419  164.3153 C.ar    1  UNL1       -0.0029
      9 C         139.4427  138.1329  165.6954 C.ar    1  UNL1       -0.0002
     10 C         139.3940  139.5711  166.1186 C.ar    1  UNL1        0.0013
     11 C         138.9069  140.6184  165.1615 C.ar    1  UNL1       -0.0002
     12 C         138.4685  140.2274  163.7813 C.ar    1  UNL1       -0.0029
     13 C         138.0788  138.3981  161.9780 C.3     1  UNL1        0.0956
     14 N         139.0757  137.8462  161.0026 N.3     1  UNL1       -0.2937
     15 H         139.4217  136.9719  161.3981 H       1  UNL1        0.1236
     16 C         140.2798  138.6556  160.6218 C.3     1  UNL1        0.0688
     17 C         142.0155  137.8925  162.3981 C.3     1  UNL1        0.0014
     18 C         141.6541  138.1639  160.9678 C.3     1  UNL1        0.0158
     19 C         142.6668  137.9436  159.8835 C.3     1  UNL1        0.0014
     20 S         142.2582  140.3011  166.6322 S.O2    1  UNL1        0.0633
     21 O         141.9246  141.7262  166.3041 O.2     1  UNL1       -0.1528
     22 O         142.5917  138.8759  166.9604 O.2     1  UNL1       -0.1528
     23 N         143.2518  140.2750  165.5089 N.3     1  UNL1       -0.1555
     24 C         144.1489  139.1270  165.1517 C.3     1  UNL1        0.0958
     25 C         144.9744  139.5349  163.9676 C.3     1  UNL1        0.0206
     26 C         144.5876  140.9349  163.5929 C.3     1  UNL1        0.0206
     27 C         143.5230  141.3923  164.5455 C.3     1  UNL1        0.0958
@<TRIPOS>BOND
     1    17    18    1
     2    18    19    1
     3    18    16    1
     4    16    14    1
     5    14    13    1
     6    13     7    1
     7     7     8   ar
     8     8     9   ar
     9     9    10   ar
    10    10     1    1
    11     1     2   ar
    12     2     3   ar
    13     3     4   ar
    14     4     5   ar
    15     5     6   ar
    16     6    20    1
    17    20    21    2
    18    20    22    2
    19    20    23    1
    20    23    24    1
    21    24    25    1
    22    25    26    1
    23    26    27    1
    24    10    11   ar
    25    11    12   ar
    26    12     7   ar
    27     6     1   ar
    28    27    23    1
    29    14    15    1
