@<TRIPOS>MOLECULE
*****
 41 44 0 0 0
SMALL
GASTEIGER

@<TRIPOS>ATOM
      1 C         141.1076  139.9258  161.7966 C.2     1  UNL1        0.2485
      2 O         140.2208  138.7161  161.7993 O.2     1  UNL1       -0.2726
      3 N         141.9910  140.2054  160.6170 N.am    1  UNL1       -0.2823
      4 H         142.5731  140.9994  160.6152 H       1  UNL1        0.1549
      5 C         140.1826  143.0552  161.7708 C.2     1  UNL1        0.2508
      6 O         140.0695  142.3746  160.4389 O.2     1  UNL1       -0.2723
      7 N         140.6858  142.2944  162.9615 N.am    1  UNL1       -0.2636
      8 C         140.8523  142.8383  164.3495 C.3     1  UNL1        0.1207
      9 C         141.3803  141.7361  165.2191 C.ar    1  UNL1       -0.0030
     10 C         141.7361  141.6898  166.6756 C.ar    1  UNL1        0.0155
     11 C         142.2519  140.4183  167.2815 C.ar    1  UNL1        0.1054
     12 C         142.4118  139.1931  166.4310 C.ar    1  UNL1        0.0181
     13 C         142.0560  139.2394  164.9746 C.ar    1  UNL1       -0.0011
     14 C         141.5402  140.5109  164.3687 C.ar    1  UNL1        0.0022
     15 C         141.1110  140.8559  162.9734 C.3     1  UNL1        0.1751
     16 S         142.6078  140.3720  168.7380 S.O2    1  UNL1        0.0104
     17 C         142.9636  140.3257  170.1944 C.3     1  UNL1        0.1816
     18 O         143.0346  138.9418  168.5882 O.2     1  UNL1       -0.1686
     19 O         142.1810  141.8021  168.8877 O.2     1  UNL1       -0.1686
     20 C         139.7925  144.4967  161.9119 C.3     1  UNL1        0.1611
     21 C         139.9211  145.9855  162.0421 C.3     1  UNL1        0.0390
     22 C         141.1504  145.1335  161.9293 C.3     1  UNL1        0.0390
     23 C         137.6557  143.3703  162.8687 C.3     1  UNL1        0.1745
     24 O         138.2990  144.3604  161.9436 O.3     1  UNL1       -0.3472
     25 C         141.9876  139.2753  159.4402 C.ar    1  UNL1        0.0503
     26 C         142.8119  138.0225  159.4720 C.ar    1  UNL1        0.0144
     27 C         142.8085  137.0923  158.2952 C.ar    1  UNL1       -0.0002
     28 C         141.9808  137.4151  157.0867 C.ar    1  UNL1        0.0182
     29 C         141.1565  138.6679  157.0549 C.ar    1  UNL1       -0.0002
     30 C         141.1599  139.5980  158.2316 C.ar    1  UNL1        0.0144
     31 C         141.9773  136.4849  155.9098 C.3     1  UNL1        0.2827
     32 O         140.5196  136.2096  156.1316 O.3     1  UNL1       -0.3692
     33 H         140.2033  135.5832  155.4619 H       1  UNL1        0.2112
     34 C         141.9739  135.5549  154.7330 C.3     1  UNL1        0.4311
     35 F         141.9705  134.6248  153.5561 F       1  UNL1       -0.1669
     36 F         141.6151  134.4127  155.6367 F       1  UNL1       -0.1669
     37 F         142.1840  136.1573  154.1186 F       1  UNL1       -0.1669
     38 C         143.4350  136.7603  155.6880 C.3     1  UNL1        0.4311
     39 F         144.8928  137.0358  155.4662 F       1  UNL1       -0.1669
     40 F         143.3477  137.6035  155.4310 F       1  UNL1       -0.1669
     41 F         144.1060  135.4640  156.0333 F       1  UNL1       -0.1669
@<TRIPOS>BOND
     1    23    24    1
     2    24    20    1
     3    20     5    1
     4     5     6    2
     5     5     7   am
     6     7     8    1
     7     8     9    1
     8     9    10   ar
     9    10    11   ar
    10    11    16    1
    11    16    17    1
    12    16    18    2
    13    16    19    2
    14    11    12   ar
    15    12    13   ar
    16    13    14   ar
    17    14    15    1
    18    15     1    1
    19     1     2    2
    20     1     3   am
    21     3    25    1
    22    25    26   ar
    23    26    27   ar
    24    27    28   ar
    25    28    31    1
    26    31    32    1
    27    31    34    1
    28    34    35    1
    29    34    36    1
    30    34    37    1
    31    31    38    1
    32    38    39    1
    33    38    40    1
    34    38    41    1
    35    28    29   ar
    36    29    30   ar
    37    20    21    1
    38    21    22    1
    39    22    20    1
    40    15     7    1
    41    30    25   ar
    42    14     9   ar
    43     3     4    1
    44    32    33    1
@<TRIPOS>MOLECULE
*****
 41 44 0 0 0
SMALL
GASTEIGER

@<TRIPOS>ATOM
      1 C         139.2323  139.9815  157.7241 C.2     1  UNL1        0.2485
      2 O         140.4796  140.7704  157.9917 O.2     1  UNL1       -0.2726
      3 N         138.0658  140.0819  158.6618 N.am    1  UNL1       -0.2823
      4 H         137.2470  139.5641  158.4863 H       1  UNL1        0.1549
      5 C         137.1395  140.3022  155.2408 C.2     1  UNL1        0.2508
      6 O         136.9837  141.3443  156.3083 O.2     1  UNL1       -0.2723
      7 N         138.1894  139.2396  155.3774 N.am    1  UNL1       -0.2636
      8 C         138.4617  138.1379  154.3966 C.3     1  UNL1        0.1207
      9 C         139.5919  137.3096  154.9319 C.ar    1  UNL1       -0.0030
     10 C         140.2880  136.0945  154.3944 C.ar    1  UNL1        0.0155
     11 C         141.4103  135.4692  155.1685 C.ar    1  UNL1        0.1054
     12 C         141.8366  136.0590  156.4802 C.ar    1  UNL1        0.0181
     13 C         141.1405  137.2741  157.0177 C.ar    1  UNL1       -0.0011
     14 C         140.0182  137.8994  156.2435 C.ar    1  UNL1        0.0022
     15 C         139.1513  139.0922  156.5189 C.3     1  UNL1        0.1751
     16 S         142.1065  134.2540  154.6311 S.O2    1  UNL1        0.0104
     17 C         142.8026  133.0389  154.0936 C.3     1  UNL1        0.1816
     18 O         142.1610  134.8863  153.2720 O.2     1  UNL1       -0.1686
     19 O         142.0520  133.6217  155.9901 O.2     1  UNL1       -0.1686
     20 C         136.2454  140.3227  154.0366 C.3     1  UNL1        0.1611
     21 C         135.7073  140.6945  152.6867 C.3     1  UNL1        0.0390
     22 C         136.9598  141.3415  153.1990 C.3     1  UNL1        0.0390
     23 C         134.2118  139.6579  155.5105 C.3     1  UNL1        0.1745
     24 O         135.2205  139.3109  154.4559 O.3     1  UNL1       -0.3472
     25 C         138.1467  140.9712  159.8671 C.ar    1  UNL1        0.0503
     26 C         138.6662  142.3719  159.7321 C.ar    1  UNL1        0.0144
     27 C         138.7471  143.2612  160.9374 C.ar    1  UNL1       -0.0002
     28 C         138.3086  142.7497  162.2775 C.ar    1  UNL1        0.0182
     29 C         137.7892  141.3491  162.4125 C.ar    1  UNL1       -0.0002
     30 C         137.7082  140.4598  161.2072 C.ar    1  UNL1        0.0144
     31 C         138.3896  143.6390  163.4828 C.3     1  UNL1        0.2827
     32 O         137.4226  144.5919  162.8449 O.3     1  UNL1       -0.3692
     33 H         137.2635  145.3394  163.4422 H       1  UNL1        0.2112
     34 C         138.4705  144.5282  164.6882 C.3     1  UNL1        0.4311
     35 F         138.5515  145.4173  165.8935 F       1  UNL1       -0.1669
     36 F         137.0459  144.2011  165.0251 F       1  UNL1       -0.1669
     37 F         139.3113  144.7839  164.5775 F       1  UNL1       -0.1669
     38 C         139.3565  142.6861  164.1208 C.3     1  UNL1        0.4311
     39 F         140.3236  141.7332  164.7587 F       1  UNL1       -0.1669
     40 F         140.0406  142.8499  163.5825 F       1  UNL1       -0.1669
     41 F         138.5733  142.0708  165.2424 F       1  UNL1       -0.1669
@<TRIPOS>BOND
     1    23    24    1
     2    24    20    1
     3    20     5    1
     4     5     6    2
     5     5     7   am
     6     7     8    1
     7     8     9    1
     8     9    10   ar
     9    10    11   ar
    10    11    16    1
    11    16    17    1
    12    16    18    2
    13    16    19    2
    14    11    12   ar
    15    12    13   ar
    16    13    14   ar
    17    14    15    1
    18    15     1    1
    19     1     2    2
    20     1     3   am
    21     3    25    1
    22    25    26   ar
    23    26    27   ar
    24    27    28   ar
    25    28    31    1
    26    31    32    1
    27    31    34    1
    28    34    35    1
    29    34    36    1
    30    34    37    1
    31    31    38    1
    32    38    39    1
    33    38    40    1
    34    38    41    1
    35    28    29   ar
    36    29    30   ar
    37    20    21    1
    38    21    22    1
    39    22    20    1
    40    15     7    1
    41    30    25   ar
    42    14     9   ar
    43     3     4    1
    44    32    33    1
@<TRIPOS>MOLECULE
*****
 41 44 0 0 0
SMALL
GASTEIGER

@<TRIPOS>ATOM
      1 C         143.1733  141.2795  158.9707 C.2     1  UNL1        0.2485
      2 O         143.8747  141.2234  160.2954 O.2     1  UNL1       -0.2726
      3 N         141.8163  141.9104  158.8667 N.am    1  UNL1       -0.2823
      4 H         141.3559  141.9473  157.9973 H       1  UNL1        0.1549
      5 C         142.1678  138.6574  157.3083 C.2     1  UNL1        0.2508
      6 O         141.3090  138.9967  158.4903 O.2     1  UNL1       -0.2723
      7 N         143.3666  139.4995  156.9859 N.am    1  UNL1       -0.2636
      8 C         144.3136  139.2843  155.8428 C.3     1  UNL1        0.1207
      9 C         145.3611  140.3565  155.9004 C.ar    1  UNL1       -0.0030
     10 C         146.5490  140.6468  155.0318 C.ar    1  UNL1        0.0155
     11 C         147.4373  141.8150  155.3420 C.ar    1  UNL1        0.1054
     12 C         147.1376  142.6929  156.5208 C.ar    1  UNL1        0.0181
     13 C         145.9496  142.4026  157.3893 C.ar    1  UNL1       -0.0011
     14 C         145.0614  141.2344  157.0792 C.ar    1  UNL1        0.0022
     15 C         143.8287  140.7047  157.7500 C.3     1  UNL1        0.1751
     16 S         148.6253  142.1053  154.4734 S.O2    1  UNL1        0.0104
     17 C         149.8132  142.3957  153.6048 C.3     1  UNL1        0.1816
     18 O         149.5410  141.7058  155.5922 O.2     1  UNL1       -0.1686
     19 O         147.7096  142.5049  153.3546 O.2     1  UNL1       -0.1686
     20 C         141.8280  137.4761  156.4487 C.3     1  UNL1        0.1611
     21 C         141.7837  136.0622  155.9496 C.3     1  UNL1        0.0390
     22 C         142.5608  136.3964  157.1883 C.3     1  UNL1        0.0390
     23 C         139.5648  138.5333  155.7345 C.3     1  UNL1        0.1745
     24 O         140.9771  138.1456  155.4105 O.3     1  UNL1       -0.3472
     25 C         141.1609  142.4851  160.0874 C.ar    1  UNL1        0.0503
     26 C         140.3647  141.5989  160.9988 C.ar    1  UNL1        0.0144
     27 C         139.7092  142.1737  162.2195 C.ar    1  UNL1       -0.0002
     28 C         139.8501  143.6346  162.5287 C.ar    1  UNL1        0.0182
     29 C         140.6463  144.5209  161.6173 C.ar    1  UNL1       -0.0002
     30 C         141.3017  143.9461  160.3966 C.ar    1  UNL1        0.0144
     31 C         139.1947  144.2095  163.7494 C.3     1  UNL1        0.2827
     32 O         138.0946  144.7677  162.8960 O.3     1  UNL1       -0.3692
     33 H         137.4580  145.2385  163.4563 H       1  UNL1        0.2112
     34 C         138.5393  144.7843  164.9701 C.3     1  UNL1        0.4311
     35 F         137.8840  145.3590  166.1909 F       1  UNL1       -0.1669
     36 F         137.3549  143.8892  164.7557 F       1  UNL1       -0.1669
     37 F         139.1863  145.3502  165.1837 F       1  UNL1       -0.1669
     38 C         140.2947  143.6512  164.6028 C.3     1  UNL1        0.4311
     39 F         141.3948  143.0929  165.4562 F       1  UNL1       -0.1669
     40 F         140.9320  144.2039  164.3327 F       1  UNL1       -0.1669
     41 F         139.6370  142.5345  165.3582 F       1  UNL1       -0.1669
@<TRIPOS>BOND
     1    23    24    1
     2    24    20    1
     3    20     5    1
     4     5     6    2
     5     5     7   am
     6     7     8    1
     7     8     9    1
     8     9    10   ar
     9    10    11   ar
    10    11    16    1
    11    16    17    1
    12    16    18    2
    13    16    19    2
    14    11    12   ar
    15    12    13   ar
    16    13    14   ar
    17    14    15    1
    18    15     1    1
    19     1     2    2
    20     1     3   am
    21     3    25    1
    22    25    26   ar
    23    26    27   ar
    24    27    28   ar
    25    28    31    1
    26    31    32    1
    27    31    34    1
    28    34    35    1
    29    34    36    1
    30    34    37    1
    31    31    38    1
    32    38    39    1
    33    38    40    1
    34    38    41    1
    35    28    29   ar
    36    29    30   ar
    37    20    21    1
    38    21    22    1
    39    22    20    1
    40    15     7    1
    41    30    25   ar
    42    14     9   ar
    43     3     4    1
    44    32    33    1
@<TRIPOS>MOLECULE
*****
 41 44 0 0 0
SMALL
GASTEIGER

@<TRIPOS>ATOM
      1 C         141.6672  139.0100  158.6082 C.2     1  UNL1        0.2485
      2 O         142.3873  138.0777  159.5367 O.2     1  UNL1       -0.2726
      3 N         140.4809  139.7871  159.0971 N.am    1  UNL1       -0.2823
      4 H         140.0082  140.3990  158.4877 H       1  UNL1        0.1549
      5 C         140.1804  137.8191  155.9586 C.2     1  UNL1        0.2508
      6 O         139.4784  137.5029  157.2459 O.2     1  UNL1       -0.2723
      7 N         141.4499  138.6179  155.9731 N.am    1  UNL1       -0.2636
      8 C         142.2588  139.0097  154.7722 C.3     1  UNL1        0.1207
      9 C         143.4422  139.7992  155.2479 C.ar    1  UNL1       -0.0030
     10 C         144.5804  140.4429  154.5130 C.ar    1  UNL1        0.0155
     11 C         145.6410  141.1828  155.2730 C.ar    1  UNL1        0.1054
     12 C         145.5634  141.2790  156.7679 C.ar    1  UNL1        0.0181
     13 C         144.4252  140.6353  157.5028 C.ar    1  UNL1       -0.0011
     14 C         143.3646  139.8954  156.7428 C.ar    1  UNL1        0.0022
     15 C         142.1333  139.1653  157.1909 C.3     1  UNL1        0.1751
     16 S         146.7792  141.8266  154.5381 S.O2    1  UNL1        0.0104
     17 C         147.9174  142.4703  153.8032 C.3     1  UNL1        0.1816
     18 O         146.2152  141.3385  153.2367 O.2     1  UNL1       -0.1686
     19 O         147.3433  142.3147  155.8394 O.2     1  UNL1       -0.1686
     20 C         139.6128  137.3363  154.6568 C.3     1  UNL1        0.1611
     21 C         138.6796  137.1989  153.4904 C.3     1  UNL1        0.0390
     22 C         138.3629  138.1632  154.5949 C.3     1  UNL1        0.0390
     23 C         141.0379  135.2351  155.2082 C.3     1  UNL1        0.1745
     24 O         140.6657  136.3417  154.2665 O.3     1  UNL1       -0.3472
     25 C         140.0148  139.6317  160.5144 C.ar    1  UNL1        0.0503
     26 C         140.7723  140.2896  161.6294 C.ar    1  UNL1        0.0144
     27 C         140.3062  140.1343  163.0466 C.ar    1  UNL1       -0.0002
     28 C         139.0827  139.3210  163.3488 C.ar    1  UNL1        0.0182
     29 C         138.3251  138.6631  162.2338 C.ar    1  UNL1       -0.0002
     30 C         138.7912  138.8184  160.8165 C.ar    1  UNL1        0.0144
     31 C         138.6165  139.1656  164.7661 C.3     1  UNL1        0.2827
     32 O         137.7107  140.3494  164.5980 O.3     1  UNL1       -0.3692
     33 H         137.2313  140.5097  165.4259 H       1  UNL1        0.2112
     34 C         138.1504  139.0101  166.1833 C.3     1  UNL1        0.4311
     35 F         137.6843  138.8546  167.6006 F       1  UNL1       -0.1669
     36 F         138.8179  140.3039  166.5448 F       1  UNL1       -0.1669
     37 F         137.7256  138.2407  166.0736 F       1  UNL1       -0.1669
     38 C         139.5223  137.9818  164.9341 C.3     1  UNL1        0.4311
     39 F         140.4281  136.7980  165.1021 F       1  UNL1       -0.1669
     40 F         139.0216  137.3993  164.4930 F       1  UNL1       -0.1669
     41 F         140.6784  138.5186  165.7249 F       1  UNL1       -0.1669
@<TRIPOS>BOND
     1    23    24    1
     2    24    20    1
     3    20     5    1
     4     5     6    2
     5     5     7   am
     6     7     8    1
     7     8     9    1
     8     9    10   ar
     9    10    11   ar
    10    11    16    1
    11    16    17    1
    12    16    18    2
    13    16    19    2
    14    11    12   ar
    15    12    13   ar
    16    13    14   ar
    17    14    15    1
    18    15     1    1
    19     1     2    2
    20     1     3   am
    21     3    25    1
    22    25    26   ar
    23    26    27   ar
    24    27    28   ar
    25    28    31    1
    26    31    32    1
    27    31    34    1
    28    34    35    1
    29    34    36    1
    30    34    37    1
    31    31    38    1
    32    38    39    1
    33    38    40    1
    34    38    41    1
    35    28    29   ar
    36    29    30   ar
    37    20    21    1
    38    21    22    1
    39    22    20    1
    40    15     7    1
    41    30    25   ar
    42    14     9   ar
    43     3     4    1
    44    32    33    1
@<TRIPOS>MOLECULE
*****
 41 44 0 0 0
SMALL
GASTEIGER

@<TRIPOS>ATOM
      1 C         143.7247  140.1297  158.7106 C.2     1  UNL1        0.2485
      2 O         142.7970  141.2666  159.0213 O.2     1  UNL1       -0.2726
      3 N         144.0997  139.1525  159.7852 N.am    1  UNL1       -0.2823
      4 H         144.7086  138.4063  159.5813 H       1  UNL1        0.1549
      5 C         142.9752  137.7481  156.6092 C.2     1  UNL1        0.2508
      6 O         142.2624  137.6472  157.9251 O.2     1  UNL1       -0.2723
      7 N         143.9330  138.8751  156.3595 N.am    1  UNL1       -0.2636
      8 C         144.7145  139.1053  155.1000 C.3     1  UNL1        0.1207
      9 C         145.5421  140.3423  155.2875 C.ar    1  UNL1       -0.0030
     10 C         146.5066  141.0511  154.3836 C.ar    1  UNL1        0.0155
     11 C         147.2010  142.2943  154.8550 C.ar    1  UNL1        0.1054
     12 C         146.9310  142.8286  156.2303 C.ar    1  UNL1        0.0181
     13 C         145.9664  142.1197  157.1343 C.ar    1  UNL1       -0.0011
     14 C         145.2720  140.8766  156.6629 C.ar    1  UNL1        0.0022
     15 C         144.2776  139.9698  157.3253 C.3     1  UNL1        0.1751
     16 S         148.1656  143.0032  153.9510 S.O2    1  UNL1        0.0104
     17 C         149.1302  143.7121  153.0471 C.3     1  UNL1        0.1816
     18 O         147.3402  144.2518  154.0493 O.2     1  UNL1       -0.1686
     19 O         148.9911  141.7547  153.8527 O.2     1  UNL1       -0.1686
     20 C         142.7301  136.7219  155.5430 C.3     1  UNL1        0.1611
     21 C         142.8287  135.4387  154.7723 C.3     1  UNL1        0.0390
     22 C         143.6343  135.6258  156.0237 C.3     1  UNL1        0.0390
     23 C         140.5289  138.0837  155.3197 C.3     1  UNL1        0.1745
     24 O         141.7409  137.4616  154.6920 O.3     1  UNL1       -0.3472
     25 C         143.5469  139.3124  161.1704 C.ar    1  UNL1        0.0503
     26 C         142.1630  138.8275  161.4862 C.ar    1  UNL1        0.0144
     27 C         141.6101  138.9874  162.8714 C.ar    1  UNL1       -0.0002
     28 C         142.4413  139.6322  163.9408 C.ar    1  UNL1        0.0182
     29 C         143.8251  140.1170  163.6249 C.ar    1  UNL1       -0.0002
     30 C         144.3780  139.9571  162.2397 C.ar    1  UNL1        0.0144
     31 C         141.8885  139.7921  165.3260 C.3     1  UNL1        0.2827
     32 O         140.9700  140.8716  164.8350 O.3     1  UNL1       -0.3692
     33 H         140.4351  141.2018  165.5737 H       1  UNL1        0.2112
     34 C         141.3358  139.9520  166.7113 C.3     1  UNL1        0.4311
     35 F         140.7831  140.1118  168.0966 F       1  UNL1       -0.1669
     36 F         142.0790  141.2465  166.8585 F       1  UNL1       -0.1669
     37 F         140.8604  139.2048  166.7248 F       1  UNL1       -0.1669
     38 C         142.8070  138.7126  165.8170 C.3     1  UNL1        0.4311
     39 F         143.7255  137.6331  166.3081 F       1  UNL1       -0.1669
     40 F         143.3591  139.2378  166.2686 F       1  UNL1       -0.1669
     41 F         142.2246  137.4533  165.2468 F       1  UNL1       -0.1669
@<TRIPOS>BOND
     1    23    24    1
     2    24    20    1
     3    20     5    1
     4     5     6    2
     5     5     7   am
     6     7     8    1
     7     8     9    1
     8     9    10   ar
     9    10    11   ar
    10    11    16    1
    11    16    17    1
    12    16    18    2
    13    16    19    2
    14    11    12   ar
    15    12    13   ar
    16    13    14   ar
    17    14    15    1
    18    15     1    1
    19     1     2    2
    20     1     3   am
    21     3    25    1
    22    25    26   ar
    23    26    27   ar
    24    27    28   ar
    25    28    31    1
    26    31    32    1
    27    31    34    1
    28    34    35    1
    29    34    36    1
    30    34    37    1
    31    31    38    1
    32    38    39    1
    33    38    40    1
    34    38    41    1
    35    28    29   ar
    36    29    30   ar
    37    20    21    1
    38    21    22    1
    39    22    20    1
    40    15     7    1
    41    30    25   ar
    42    14     9   ar
    43     3     4    1
    44    32    33    1
@<TRIPOS>MOLECULE
*****
 41 44 0 0 0
SMALL
GASTEIGER

@<TRIPOS>ATOM
      1 C         143.6323  140.0601  159.1032 C.2     1  UNL1        0.2485
      2 O         142.8279  141.2215  159.6070 O.2     1  UNL1       -0.2726
      3 N         144.1085  139.0067  160.0591 N.am    1  UNL1       -0.2823
      4 H         144.6364  138.2443  159.7284 H       1  UNL1        0.1549
      5 C         142.3460  137.9209  157.0011 C.2     1  UNL1        0.2508
      6 O         141.8233  137.7902  158.4009 O.2     1  UNL1       -0.2723
      7 N         143.3693  138.9687  156.6773 N.am    1  UNL1       -0.2636
      8 C         143.9811  139.2173  155.3305 C.3     1  UNL1        0.1207
      9 C         144.9505  140.3541  155.4643 C.ar    1  UNL1       -0.0030
     10 C         145.8430  141.0345  154.4692 C.ar    1  UNL1        0.0155
     11 C         146.7229  142.1690  154.9036 C.ar    1  UNL1        0.1054
     12 C         146.7102  142.6231  156.3332 C.ar    1  UNL1        0.0181
     13 C         145.8176  141.9427  157.3283 C.ar    1  UNL1       -0.0011
     14 C         144.9378  140.8082  156.8939 C.ar    1  UNL1        0.0022
     15 C         143.9606  139.9520  157.6435 C.3     1  UNL1        0.1751
     16 S         147.6155  142.8494  153.9084 S.O2    1  UNL1        0.0104
     17 C         148.5081  143.5299  152.9134 C.3     1  UNL1        0.1816
     18 O         147.9886  141.5161  153.3313 O.2     1  UNL1       -0.1686
     19 O         147.2425  144.1827  154.4856 O.2     1  UNL1       -0.1686
     20 C         141.8453  137.0037  155.9250 C.3     1  UNL1        0.1611
     21 C         140.9458  136.4205  154.8758 C.3     1  UNL1        0.0390
     22 C         140.5230  137.6469  155.6289 C.3     1  UNL1        0.0390
     23 C         143.2119  135.0439  156.9456 C.3     1  UNL1        0.1745
     24 O         142.9939  136.0420  155.8473 O.3     1  UNL1       -0.3472
     25 C         143.7802  139.1148  161.5187 C.ar    1  UNL1        0.0503
     26 C         144.5292  140.0824  162.3863 C.ar    1  UNL1        0.0144
     27 C         144.2009  140.1905  163.8459 C.ar    1  UNL1       -0.0002
     28 C         143.1235  139.3309  164.4379 C.ar    1  UNL1        0.0182
     29 C         142.3745  138.3633  163.5703 C.ar    1  UNL1       -0.0002
     30 C         142.7028  138.2552  162.1107 C.ar    1  UNL1        0.0144
     31 C         142.7952  139.4390  165.8976 C.3     1  UNL1        0.2827
     32 O         143.2279  138.0171  166.1003 O.3     1  UNL1       -0.3692
     33 H         143.1210  137.7766  167.0339 H       1  UNL1        0.2112
     34 C         142.4668  139.5471  167.3572 C.3     1  UNL1        0.4311
     35 F         142.1384  139.6552  168.8168 F       1  UNL1       -0.1669
     36 F         141.0044  139.4604  167.0346 F       1  UNL1       -0.1669
     37 F         143.3002  139.6057  167.6514 F       1  UNL1       -0.1669
     38 C         142.3624  140.8608  165.6949 C.3     1  UNL1        0.4311
     39 F         141.9296  142.2827  165.4921 F       1  UNL1       -0.1669
     40 F         141.6284  140.6852  165.2313 F       1  UNL1       -0.1669
     41 F         143.4213  141.6651  166.3891 F       1  UNL1       -0.1669
@<TRIPOS>BOND
     1    23    24    1
     2    24    20    1
     3    20     5    1
     4     5     6    2
     5     5     7   am
     6     7     8    1
     7     8     9    1
     8     9    10   ar
     9    10    11   ar
    10    11    16    1
    11    16    17    1
    12    16    18    2
    13    16    19    2
    14    11    12   ar
    15    12    13   ar
    16    13    14   ar
    17    14    15    1
    18    15     1    1
    19     1     2    2
    20     1     3   am
    21     3    25    1
    22    25    26   ar
    23    26    27   ar
    24    27    28   ar
    25    28    31    1
    26    31    32    1
    27    31    34    1
    28    34    35    1
    29    34    36    1
    30    34    37    1
    31    31    38    1
    32    38    39    1
    33    38    40    1
    34    38    41    1
    35    28    29   ar
    36    29    30   ar
    37    20    21    1
    38    21    22    1
    39    22    20    1
    40    15     7    1
    41    30    25   ar
    42    14     9   ar
    43     3     4    1
    44    32    33    1
@<TRIPOS>MOLECULE
*****
 41 44 0 0 0
SMALL
GASTEIGER

@<TRIPOS>ATOM
      1 C         142.9400  139.2216  158.4037 C.2     1  UNL1        0.2485
      2 O         143.7667  138.7702  159.5710 O.2     1  UNL1       -0.2726
      3 N         141.5116  139.6307  158.6100 N.am    1  UNL1       -0.2823
      4 H         140.9689  139.9270  157.8438 H       1  UNL1        0.1549
      5 C         142.2765  137.1690  155.9550 C.2     1  UNL1        0.2508
      6 O         141.5189  136.8787  157.2167 O.2     1  UNL1       -0.2723
      7 N         143.2365  138.3204  155.9047 N.am    1  UNL1       -0.2636
      8 C         144.0601  138.7306  154.7201 C.3     1  UNL1        0.1207
      9 C         144.8740  139.9276  155.1134 C.ar    1  UNL1       -0.0030
     10 C         145.8657  140.7600  154.3559 C.ar    1  UNL1        0.0155
     11 C         146.5368  141.9219  155.0263 C.ar    1  UNL1        0.1054
     12 C         146.2162  142.2515  156.4541 C.ar    1  UNL1        0.0181
     13 C         145.2246  141.4192  157.2116 C.ar    1  UNL1       -0.0011
     14 C         144.5535  140.2572  156.5412 C.ar    1  UNL1        0.0022
     15 C         143.5415  139.2639  157.0303 C.3     1  UNL1        0.1751
     16 S         147.5284  142.7544  154.2688 S.O2    1  UNL1        0.0104
     17 C         148.5201  143.5868  153.5114 C.3     1  UNL1        0.1816
     18 O         146.4031  143.4918  153.6058 O.2     1  UNL1       -0.1686
     19 O         148.6538  142.0169  154.9318 O.2     1  UNL1       -0.1686
     20 C         142.0741  136.3078  154.7437 C.3     1  UNL1        0.1611
     21 C         141.4285  135.7204  153.5237 C.3     1  UNL1        0.0390
     22 C         140.7280  136.7971  154.2982 C.3     1  UNL1        0.0390
     23 C         143.7049  134.7050  155.9772 C.3     1  UNL1        0.1745
     24 O         143.3499  135.5193  154.7685 O.3     1  UNL1       -0.3472
     25 C         140.9101  139.5884  159.9834 C.ar    1  UNL1        0.0503
     26 C         141.0826  140.7522  160.9139 C.ar    1  UNL1        0.0144
     27 C         140.4812  140.7098  162.2874 C.ar    1  UNL1       -0.0002
     28 C         139.7072  139.5037  162.7303 C.ar    1  UNL1        0.0182
     29 C         139.5347  138.3399  161.7998 C.ar    1  UNL1       -0.0002
     30 C         140.1362  138.3823  160.4263 C.ar    1  UNL1        0.0144
     31 C         139.1057  139.4613  164.1038 C.3     1  UNL1        0.2827
     32 O         140.1710  138.4999  164.5408 O.3     1  UNL1       -0.3692
     33 H         140.0339  138.2669  165.4723 H       1  UNL1        0.2112
     34 C         138.5041  139.4189  165.4772 C.3     1  UNL1        0.4311
     35 F         137.9025  139.3766  166.8507 F       1  UNL1       -0.1669
     36 F         139.7595  140.0116  166.0454 F       1  UNL1       -0.1669
     37 F         137.7251  139.0685  165.2432 F       1  UNL1       -0.1669
     38 C         138.0404  140.4226  163.6668 C.3     1  UNL1        0.4311
     39 F         136.9750  141.3839  163.2298 F       1  UNL1       -0.1669
     40 F         137.6321  139.8801  163.0981 F       1  UNL1       -0.1669
     41 F         138.3315  141.6680  164.4506 F       1  UNL1       -0.1669
@<TRIPOS>BOND
     1    23    24    1
     2    24    20    1
     3    20     5    1
     4     5     6    2
     5     5     7   am
     6     7     8    1
     7     8     9    1
     8     9    10   ar
     9    10    11   ar
    10    11    16    1
    11    16    17    1
    12    16    18    2
    13    16    19    2
    14    11    12   ar
    15    12    13   ar
    16    13    14   ar
    17    14    15    1
    18    15     1    1
    19     1     2    2
    20     1     3   am
    21     3    25    1
    22    25    26   ar
    23    26    27   ar
    24    27    28   ar
    25    28    31    1
    26    31    32    1
    27    31    34    1
    28    34    35    1
    29    34    36    1
    30    34    37    1
    31    31    38    1
    32    38    39    1
    33    38    40    1
    34    38    41    1
    35    28    29   ar
    36    29    30   ar
    37    20    21    1
    38    21    22    1
    39    22    20    1
    40    15     7    1
    41    30    25   ar
    42    14     9   ar
    43     3     4    1
    44    32    33    1
@<TRIPOS>MOLECULE
*****
 41 44 0 0 0
SMALL
GASTEIGER

@<TRIPOS>ATOM
      1 C         141.2978  140.0386  158.9202 C.2     1  UNL1        0.2485
      2 O         140.7515  141.3202  159.4759 O.2     1  UNL1       -0.2726
      3 N         141.2384  138.7816  159.7367 N.am    1  UNL1       -0.2823
      4 H         141.5969  137.9403  159.3720 H       1  UNL1        0.1549
      5 C         139.9813  138.6691  156.2667 C.2     1  UNL1        0.2508
      6 O         139.1418  138.5353  157.5026 O.2     1  UNL1       -0.2723
      7 N         141.2984  139.3843  156.3285 N.am    1  UNL1       -0.2636
      8 C         142.2416  139.5956  155.1815 C.3     1  UNL1        0.1207
      9 C         143.4296  140.3557  155.6922 C.ar    1  UNL1       -0.0030
     10 C         144.6747  140.8459  155.0143 C.ar    1  UNL1        0.0155
     11 C         145.7108  141.5945  155.7992 C.ar    1  UNL1        0.1054
     12 C         145.5018  141.8529  157.2619 C.ar    1  UNL1        0.0181
     13 C         144.2568  141.3627  157.9398 C.ar    1  UNL1       -0.0011
     14 C         143.2207  140.6141  157.1549 C.ar    1  UNL1        0.0022
     15 C         141.9035  140.0138  157.5481 C.3     1  UNL1        0.1751
     16 S         146.9559  142.0847  155.1213 S.O2    1  UNL1        0.0104
     17 C         148.2009  142.5748  154.4434 C.3     1  UNL1        0.1816
     18 O         147.6205  142.2433  156.4566 O.2     1  UNL1       -0.1686
     19 O         146.2914  141.9260  153.7860 O.2     1  UNL1       -0.1686
     20 C         139.5037  138.0876  154.9691 C.3     1  UNL1        0.1611
     21 C         139.2083  137.0759  153.9018 C.3     1  UNL1        0.0390
     22 C         139.8623  136.6468  155.1817 C.3     1  UNL1        0.0390
     23 C         137.9319  140.1562  154.9877 C.3     1  UNL1        0.1745
     24 O         138.9793  139.3267  154.3059 O.3     1  UNL1       -0.3472
     25 C         140.6327  138.8063  161.1087 C.ar    1  UNL1        0.0503
     26 C         139.2815  138.1987  161.3432 C.ar    1  UNL1        0.0144
     27 C         138.6758  138.2235  162.7152 C.ar    1  UNL1       -0.0002
     28 C         139.4214  138.8560  163.8528 C.ar    1  UNL1        0.0182
     29 C         140.7726  139.4636  163.6183 C.ar    1  UNL1       -0.0002
     30 C         141.3783  139.4388  162.2463 C.ar    1  UNL1        0.0144
     31 C         138.8157  138.8808  165.2249 C.3     1  UNL1        0.2827
     32 O         139.2341  137.4558  165.4354 O.3     1  UNL1       -0.3692
     33 H         138.9550  137.1638  166.3174 H       1  UNL1        0.2112
     34 C         138.2101  138.9057  166.5970 C.3     1  UNL1        0.4311
     35 F         137.6045  138.9307  167.9690 F       1  UNL1       -0.1669
     36 F         139.5642  139.1601  167.1900 F       1  UNL1       -0.1669
     37 F         137.3729  138.7584  166.3482 F       1  UNL1       -0.1669
     38 C         138.3974  140.3058  165.0143 C.3     1  UNL1        0.4311
     39 F         137.9789  141.7308  164.8037 F       1  UNL1       -0.1669
     40 F         137.6911  140.1371  164.5071 F       1  UNL1       -0.1669
     41 F         139.4155  141.0997  165.7779 F       1  UNL1       -0.1669
@<TRIPOS>BOND
     1    23    24    1
     2    24    20    1
     3    20     5    1
     4     5     6    2
     5     5     7   am
     6     7     8    1
     7     8     9    1
     8     9    10   ar
     9    10    11   ar
    10    11    16    1
    11    16    17    1
    12    16    18    2
    13    16    19    2
    14    11    12   ar
    15    12    13   ar
    16    13    14   ar
    17    14    15    1
    18    15     1    1
    19     1     2    2
    20     1     3   am
    21     3    25    1
    22    25    26   ar
    23    26    27   ar
    24    27    28   ar
    25    28    31    1
    26    31    32    1
    27    31    34    1
    28    34    35    1
    29    34    36    1
    30    34    37    1
    31    31    38    1
    32    38    39    1
    33    38    40    1
    34    38    41    1
    35    28    29   ar
    36    29    30   ar
    37    20    21    1
    38    21    22    1
    39    22    20    1
    40    15     7    1
    41    30    25   ar
    42    14     9   ar
    43     3     4    1
    44    32    33    1
@<TRIPOS>MOLECULE
*****
 41 44 0 0 0
SMALL
GASTEIGER

@<TRIPOS>ATOM
      1 C         141.9606  137.8863  157.5468 C.2     1  UNL1        0.2485
      2 O         140.8289  138.2122  158.4756 O.2     1  UNL1       -0.2726
      3 N         143.2427  138.6611  157.6261 N.am    1  UNL1       -0.2823
      4 H         143.9856  138.4473  157.0165 H       1  UNL1        0.1549
      5 C         139.9684  137.9109  154.9623 C.2     1  UNL1        0.2508
      6 O         139.9025  139.1566  155.7952 O.2     1  UNL1       -0.2723
      7 N         140.8949  136.7970  155.3508 N.am    1  UNL1       -0.2636
      8 C         141.0683  135.4988  154.6196 C.3     1  UNL1        0.1207
      9 C         142.0911  134.6852  155.3557 C.ar    1  UNL1       -0.0030
     10 C         142.6640  133.3229  155.0991 C.ar    1  UNL1        0.0155
     11 C         143.6957  132.7559  156.0287 C.ar    1  UNL1        0.1054
     12 C         144.1545  133.5513  157.2149 C.ar    1  UNL1        0.0181
     13 C         143.5816  134.9136  157.4714 C.ar    1  UNL1       -0.0011
     14 C         142.5499  135.4805  156.5419 C.ar    1  UNL1        0.0022
     15 C         141.8106  136.7857  156.5388 C.3     1  UNL1        0.1751
     16 S         144.2686  131.3935  155.7722 S.O2    1  UNL1        0.0104
     17 C         144.8415  130.0312  155.5156 C.3     1  UNL1        0.1816
     18 O         145.0497  131.4814  157.0497 O.2     1  UNL1       -0.1686
     19 O         143.4876  131.3057  154.4946 O.2     1  UNL1       -0.1686
     20 C         139.1079  137.7790  153.7408 C.3     1  UNL1        0.1611
     21 C         137.8895  137.5731  152.8904 C.3     1  UNL1        0.0390
     22 C         137.7786  137.5199  154.3854 C.3     1  UNL1        0.0390
     23 C         140.8869  139.2904  152.6002 C.3     1  UNL1        0.1745
     24 O         140.1385  137.9925  152.6719 O.3     1  UNL1       -0.3472
     25 C         143.3928  139.7617  158.6341 C.ar    1  UNL1        0.0503
     26 C         143.3593  139.4458  160.1001 C.ar    1  UNL1        0.0144
     27 C         143.5093  140.5464  161.1081 C.ar    1  UNL1       -0.0002
     28 C         143.6929  141.9629  160.6501 C.ar    1  UNL1        0.0182
     29 C         143.7264  142.2788  159.1841 C.ar    1  UNL1       -0.0002
     30 C         143.5763  141.1782  158.1761 C.ar    1  UNL1        0.0144
     31 C         143.8430  143.0636  161.6581 C.3     1  UNL1        0.2827
     32 O         142.7879  143.8585  160.9474 O.3     1  UNL1       -0.3692
     33 H         142.6520  144.7008  161.4087 H       1  UNL1        0.2112
     34 C         143.9931  144.1643  162.6661 C.3     1  UNL1        0.4311
     35 F         144.1433  145.2649  163.6741 F       1  UNL1       -0.1669
     36 F         142.6196  143.8699  163.1921 F       1  UNL1       -0.1669
     37 F         144.8089  144.4161  162.4304 F       1  UNL1       -0.1669
     38 C         144.8981  142.2688  162.3688 C.3     1  UNL1        0.4311
     39 F         145.9532  141.4740  163.0794 F       1  UNL1       -0.1669
     40 F         145.5016  142.2868  161.7207 F       1  UNL1       -0.1669
     41 F         144.2800  141.9520  163.6983 F       1  UNL1       -0.1669
@<TRIPOS>BOND
     1    23    24    1
     2    24    20    1
     3    20     5    1
     4     5     6    2
     5     5     7   am
     6     7     8    1
     7     8     9    1
     8     9    10   ar
     9    10    11   ar
    10    11    16    1
    11    16    17    1
    12    16    18    2
    13    16    19    2
    14    11    12   ar
    15    12    13   ar
    16    13    14   ar
    17    14    15    1
    18    15     1    1
    19     1     2    2
    20     1     3   am
    21     3    25    1
    22    25    26   ar
    23    26    27   ar
    24    27    28   ar
    25    28    31    1
    26    31    32    1
    27    31    34    1
    28    34    35    1
    29    34    36    1
    30    34    37    1
    31    31    38    1
    32    38    39    1
    33    38    40    1
    34    38    41    1
    35    28    29   ar
    36    29    30   ar
    37    20    21    1
    38    21    22    1
    39    22    20    1
    40    15     7    1
    41    30    25   ar
    42    14     9   ar
    43     3     4    1
    44    32    33    1
