@<TRIPOS>MOLECULE
*****
 34 37 0 0 0
SMALL
GASTEIGER

@<TRIPOS>ATOM
      1 C         138.8380  142.4041  163.4892 C.ar    1  UNL1       -0.0177
      2 C         138.3074  141.2431  162.7015 C.ar    1  UNL1       -0.0043
      3 C         138.2922  139.8707  163.3066 C.ar    1  UNL1       -0.0046
      4 C         138.8076  139.6592  164.6993 C.ar    1  UNL1       -0.0222
      5 C         139.3382  140.8203  165.4870 C.ar    1  UNL1       -0.0046
      6 C         139.3533  142.1927  164.8819 C.ar    1  UNL1       -0.0043
      7 C         138.8532  143.7767  162.8841 C.3     1  UNL1        0.0570
      8 C         141.1585  144.8270  162.0312 C.ar    1  UNL1        0.0782
      9 N         141.8375  144.9546  160.6998 N.ar    1  UNL1       -0.1687
     10 N         140.9532  144.3228  159.6659 N.ar    1  UNL1       -0.2168
     11 C         141.1056  144.1524  158.1835 C.ar    1  UNL1        0.0636
     12 C         142.3312  144.6705  157.4910 C.3     1  UNL1        0.0522
     13 C         140.0325  143.4638  157.3935 C.ar    1  UNL1        0.0296
     14 C         138.8069  142.9456  158.0859 C.ar    1  UNL1        0.0622
     15 C         137.7337  142.2570  157.2958 C.3     1  UNL1        0.0522
     16 N         138.6545  143.1161  159.5684 N.ar    1  UNL1       -0.2311
     17 C         139.7276  143.8046  160.3583 C.ar    1  UNL1        0.1604
     18 C         139.8545  144.1162  161.8201 C.ar    1  UNL1        0.0332
     19 C         143.0192  144.8409  163.8443 C.3     1  UNL1        0.0067
     20 C         141.6901  145.3229  163.3432 C.3     1  UNL1        0.0474
     21 C         138.7924  138.2868  165.3043 C.3     1  UNL1        0.0264
     22 C         139.6376  137.1973  164.7138 C.3     1  UNL1        0.0071
     23 C         141.1332  137.3049  164.7509 C.3     1  UNL1        0.0274
     24 C         141.8707  137.9083  163.5924 C.3     1  UNL1        0.0910
     25 O         141.1700  136.7797  162.8957 O.3     1  UNL1       -0.3866
     26 C         142.3153  138.8273  164.6913 C.3     1  UNL1        0.0443
     27 C         143.2540  139.9578  164.3898 C.3     1  UNL1        0.0745
     28 N         143.7481  140.1692  162.9894 N.3     1  UNL1       -0.2738
     29 C         143.3035  139.2501  161.8904 C.3     1  UNL1        0.0745
     30 C         142.3648  138.1197  162.1919 C.3     1  UNL1        0.0443
     31 H         140.6377  136.2842  163.5376 H       1  UNL1        0.2102
     32 C         144.6868  141.2997  162.6879 C.3     1  UNL1        0.0576
     33 C         144.4927  142.1263  161.4515 C.3     1  UNL1        0.0173
     34 C         145.8197  141.6034  163.6229 C.3     1  UNL1        0.0173
@<TRIPOS>BOND
     1    19    20    1
     2    20     8    1
     3     8     9   ar
     4     9    10   ar
     5    10    11   ar
     6    11    12    1
     7    11    13   ar
     8    13    14   ar
     9    14    15    1
    10    14    16   ar
    11    16    17   ar
    12    17    18   ar
    13    18     7    1
    14     7     1    1
    15     1     2   ar
    16     2     3   ar
    17     3     4   ar
    18     4    21    1
    19    21    22    1
    20    22    23    1
    21    23    24    1
    22    24    25    1
    23    24    26    1
    24    26    27    1
    25    27    28    1
    26    28    32    1
    27    32    33    1
    28    32    34    1
    29    28    29    1
    30    29    30    1
    31     4     5   ar
    32     5     6   ar
    33    18     8   ar
    34     6     1   ar
    35    17    10   ar
    36    30    24    1
    37    25    31    1
@<TRIPOS>MOLECULE
*****
 34 37 0 0 0
SMALL
GASTEIGER

@<TRIPOS>ATOM
      1 C         142.2857  142.4253  165.5086 C.ar    1  UNL1       -0.0177
      2 C         140.8477  142.8424  165.6000 C.ar    1  UNL1       -0.0043
      3 C         139.8636  141.9847  166.3387 C.ar    1  UNL1       -0.0046
      4 C         140.3173  140.7099  166.9860 C.ar    1  UNL1       -0.0222
      5 C         141.7552  140.2928  166.8946 C.ar    1  UNL1       -0.0046
      6 C         142.7394  141.1505  166.1559 C.ar    1  UNL1       -0.0043
      7 C         143.2699  143.2830  164.7699 C.3     1  UNL1        0.0570
      8 C         144.7367  142.0556  162.9025 C.ar    1  UNL1        0.0782
      9 N         144.7330  142.0228  161.4029 N.ar    1  UNL1       -0.1687
     10 N         143.6212  142.9079  160.9226 N.ar    1  UNL1       -0.2168
     11 C         143.1428  143.2607  159.5455 C.ar    1  UNL1        0.0636
     12 C         143.8262  142.6809  158.3426 C.3     1  UNL1        0.0522
     13 C         141.9811  144.1934  159.3712 C.ar    1  UNL1        0.0296
     14 C         141.2977  144.7732  160.5740 C.ar    1  UNL1        0.0622
     15 C         140.1359  145.7059  160.3996 C.3     1  UNL1        0.0522
     16 N         141.7761  144.4203  161.9511 N.ar    1  UNL1       -0.2311
     17 C         142.9378  143.4877  162.1255 C.ar    1  UNL1        0.1604
     18 C         143.6273  142.9609  163.3491 C.ar    1  UNL1        0.0332
     19 C         145.3540  139.9214  164.2494 C.3     1  UNL1        0.0067
     20 C         145.6837  141.3134  163.7983 C.3     1  UNL1        0.0474
     21 C         139.3331  139.8522  167.7247 C.3     1  UNL1        0.0264
     22 C         138.2397  139.1497  166.9755 C.3     1  UNL1        0.0071
     23 C         138.5693  138.3231  165.7681 C.3     1  UNL1        0.0274
     24 C         138.9917  138.9921  164.4937 C.3     1  UNL1        0.0910
     25 O         137.7202  139.7382  164.7705 O.3     1  UNL1       -0.3866
     26 C         140.1165  138.0137  164.6595 C.3     1  UNL1        0.0443
     27 C         141.2221  137.9634  163.6471 C.3     1  UNL1        0.0745
     28 N         141.2030  138.8915  162.4688 N.3     1  UNL1       -0.2738
     29 C         140.0782  139.8700  162.3030 C.3     1  UNL1        0.0745
     30 C         138.9726  139.9202  163.3155 C.3     1  UNL1        0.0443
     31 H         137.3212  139.4047  165.5893 H       1  UNL1        0.2102
     32 C         142.3086  138.8412  161.4564 C.3     1  UNL1        0.0576
     33 C         143.5190  137.9923  161.7091 C.3     1  UNL1        0.0173
     34 C         142.2036  139.6401  160.1911 C.3     1  UNL1        0.0173
@<TRIPOS>BOND
     1    19    20    1
     2    20     8    1
     3     8     9   ar
     4     9    10   ar
     5    10    11   ar
     6    11    12    1
     7    11    13   ar
     8    13    14   ar
     9    14    15    1
    10    14    16   ar
    11    16    17   ar
    12    17    18   ar
    13    18     7    1
    14     7     1    1
    15     1     2   ar
    16     2     3   ar
    17     3     4   ar
    18     4    21    1
    19    21    22    1
    20    22    23    1
    21    23    24    1
    22    24    25    1
    23    24    26    1
    24    26    27    1
    25    27    28    1
    26    28    32    1
    27    32    33    1
    28    32    34    1
    29    28    29    1
    30    29    30    1
    31     4     5   ar
    32     5     6   ar
    33    18     8   ar
    34     6     1   ar
    35    17    10   ar
    36    30    24    1
    37    25    31    1
@<TRIPOS>MOLECULE
*****
 34 37 0 0 0
SMALL
GASTEIGER

@<TRIPOS>ATOM
      1 C         142.6725  138.2184  162.8497 C.ar    1  UNL1       -0.0177
      2 C         141.4208  137.7519  162.1672 C.ar    1  UNL1       -0.0043
      3 C         140.1710  137.5263  162.9653 C.ar    1  UNL1       -0.0046
      4 C         140.1728  137.7671  164.4458 C.ar    1  UNL1       -0.0222
      5 C         141.4245  138.2336  165.1283 C.ar    1  UNL1       -0.0046
      6 C         142.6743  138.4592  164.3302 C.ar    1  UNL1       -0.0043
      7 C         143.9224  138.4440  162.0516 C.3     1  UNL1        0.0570
      8 C         144.4410  141.0074  161.4988 C.ar    1  UNL1        0.0782
      9 N         144.3912  141.8571  160.2637 N.ar    1  UNL1       -0.1687
     10 N         143.9371  140.9932  159.1247 N.ar    1  UNL1       -0.2168
     11 C         143.7040  141.2877  157.6725 C.ar    1  UNL1        0.0636
     12 C         143.9349  142.6714  157.1414 C.3     1  UNL1        0.0522
     13 C         143.2401  140.1986  156.7514 C.ar    1  UNL1        0.0296
     14 C         143.0092  138.8149  157.2825 C.ar    1  UNL1        0.0622
     15 C         142.5452  137.7257  156.3614 C.3     1  UNL1        0.0522
     16 N         143.2423  138.5203  158.7347 N.ar    1  UNL1       -0.2311
     17 C         143.7062  139.6095  159.6558 C.ar    1  UNL1        0.1604
     18 C         144.0177  139.6183  161.1231 C.ar    1  UNL1        0.0332
     19 C         143.7952  141.8733  163.8617 C.3     1  UNL1        0.0067
     20 C         144.8434  141.4661  162.8691 C.3     1  UNL1        0.0474
     21 C         138.9229  137.5415  165.2439 C.3     1  UNL1        0.0264
     22 C         138.3911  138.6299  166.1286 C.3     1  UNL1        0.0071
     23 C         138.1063  139.9877  165.5585 C.3     1  UNL1        0.0274
     24 C         139.1033  141.0957  165.7263 C.3     1  UNL1        0.0910
     25 O         139.3093  140.3622  167.0184 O.3     1  UNL1       -0.3866
     26 C         138.5511  141.4445  164.3760 C.3     1  UNL1        0.0443
     27 C         139.0675  142.6466  163.6422 C.3     1  UNL1        0.0745
     28 N         140.1361  143.4999  164.2587 N.3     1  UNL1       -0.2738
     29 C         140.6883  143.1511  165.6091 C.3     1  UNL1        0.0745
     30 C         140.1719  141.9491  166.3428 C.3     1  UNL1        0.0443
     31 H         138.7143  139.5969  167.0541 H       1  UNL1        0.2102
     32 C         140.6525  144.7019  163.5250 C.3     1  UNL1        0.0576
     33 C         139.7663  145.4272  162.5563 C.3     1  UNL1        0.0173
     34 C         142.0552  145.1785  163.7600 C.3     1  UNL1        0.0173
@<TRIPOS>BOND
     1    19    20    1
     2    20     8    1
     3     8     9   ar
     4     9    10   ar
     5    10    11   ar
     6    11    12    1
     7    11    13   ar
     8    13    14   ar
     9    14    15    1
    10    14    16   ar
    11    16    17   ar
    12    17    18   ar
    13    18     7    1
    14     7     1    1
    15     1     2   ar
    16     2     3   ar
    17     3     4   ar
    18     4    21    1
    19    21    22    1
    20    22    23    1
    21    23    24    1
    22    24    25    1
    23    24    26    1
    24    26    27    1
    25    27    28    1
    26    28    32    1
    27    32    33    1
    28    32    34    1
    29    28    29    1
    30    29    30    1
    31     4     5   ar
    32     5     6   ar
    33    18     8   ar
    34     6     1   ar
    35    17    10   ar
    36    30    24    1
    37    25    31    1
@<TRIPOS>MOLECULE
*****
 34 37 0 0 0
SMALL
GASTEIGER

@<TRIPOS>ATOM
      1 C         139.2255  142.9669  163.9329 C.ar    1  UNL1       -0.0177
      2 C         140.0201  142.4990  165.1160 C.ar    1  UNL1       -0.0043
      3 C         139.6426  141.2282  165.8178 C.ar    1  UNL1       -0.0046
      4 C         138.4706  140.4253  165.3365 C.ar    1  UNL1       -0.0222
      5 C         137.6760  140.8932  164.1534 C.ar    1  UNL1       -0.0046
      6 C         138.0535  142.1640  163.4517 C.ar    1  UNL1       -0.0043
      7 C         139.6030  144.2378  163.2311 C.3     1  UNL1        0.0570
      8 C         142.0551  144.6015  162.2311 C.ar    1  UNL1        0.0782
      9 N         142.6887  144.4199  160.8837 N.ar    1  UNL1       -0.1687
     10 N         141.6364  143.9166  159.9406 N.ar    1  UNL1       -0.2168
     11 C         141.6815  143.5595  158.4845 C.ar    1  UNL1        0.0636
     12 C         142.9655  143.6890  157.7199 C.3     1  UNL1        0.0522
     13 C         140.4426  143.0729  157.7929 C.ar    1  UNL1        0.0296
     14 C         139.1586  142.9434  158.5575 C.ar    1  UNL1        0.0622
     15 C         137.9197  142.4567  157.8658 C.3     1  UNL1        0.0522
     16 N         139.1135  143.3005  160.0136 N.ar    1  UNL1       -0.2311
     17 C         140.3524  143.7871  160.7052 C.ar    1  UNL1        0.1604
     18 C         140.6112  144.2104  162.1208 C.ar    1  UNL1        0.0332
     19 C         143.5281  144.1311  164.3188 C.3     1  UNL1        0.0067
     20 C         142.7443  145.0886  163.4711 C.3     1  UNL1        0.0474
     21 C         138.0932  139.1545  166.0383 C.3     1  UNL1        0.0264
     22 C         138.7790  137.8688  165.6824 C.3     1  UNL1        0.0071
     23 C         138.7721  137.3829  164.2633 C.3     1  UNL1        0.0274
     24 C         139.9633  137.6209  163.3833 C.3     1  UNL1        0.0910
     25 O         140.6536  137.2184  164.6527 O.3     1  UNL1       -0.3866
     26 C         138.8593  137.9408  162.4195 C.3     1  UNL1        0.0443
     27 C         139.1863  138.3589  161.0165 C.3     1  UNL1        0.0745
     28 N         140.6172  138.4571  160.5773 N.3     1  UNL1       -0.2738
     29 C         141.7212  138.1372  161.5412 C.3     1  UNL1        0.0745
     30 C         141.3942  137.7192  162.9441 C.3     1  UNL1        0.0443
     31 H         139.9908  137.0276  165.3347 H       1  UNL1        0.2102
     32 C         140.9441  138.8752  159.1744 C.3     1  UNL1        0.0576
     33 C         142.2675  139.5126  158.8708 C.3     1  UNL1        0.0173
     34 C         139.9475  138.6557  158.0750 C.3     1  UNL1        0.0173
@<TRIPOS>BOND
     1    19    20    1
     2    20     8    1
     3     8     9   ar
     4     9    10   ar
     5    10    11   ar
     6    11    12    1
     7    11    13   ar
     8    13    14   ar
     9    14    15    1
    10    14    16   ar
    11    16    17   ar
    12    17    18   ar
    13    18     7    1
    14     7     1    1
    15     1     2   ar
    16     2     3   ar
    17     3     4   ar
    18     4    21    1
    19    21    22    1
    20    22    23    1
    21    23    24    1
    22    24    25    1
    23    24    26    1
    24    26    27    1
    25    27    28    1
    26    28    32    1
    27    32    33    1
    28    32    34    1
    29    28    29    1
    30    29    30    1
    31     4     5   ar
    32     5     6   ar
    33    18     8   ar
    34     6     1   ar
    35    17    10   ar
    36    30    24    1
    37    25    31    1
@<TRIPOS>MOLECULE
*****
 34 37 0 0 0
SMALL
GASTEIGER

@<TRIPOS>ATOM
      1 C         138.4575  140.0015  162.9368 C.ar    1  UNL1       -0.0177
      2 C         138.6383  138.5278  162.7234 C.ar    1  UNL1       -0.0043
      3 C         139.0259  138.0080  161.3709 C.ar    1  UNL1       -0.0046
      4 C         139.2328  138.9617  160.2318 C.ar    1  UNL1       -0.0222
      5 C         139.0519  140.4354  160.4452 C.ar    1  UNL1       -0.0046
      6 C         138.6643  140.9553  161.7977 C.ar    1  UNL1       -0.0043
      7 C         138.0698  140.5215  164.2895 C.3     1  UNL1        0.0570
      8 C         138.8860  139.5701  166.6503 C.ar    1  UNL1        0.0782
      9 N         140.0807  139.7953  167.5289 N.ar    1  UNL1       -0.1687
     10 N         140.9701  140.7971  166.8541 N.ar    1  UNL1       -0.2168
     11 C         142.2840  141.4014  167.2520 C.ar    1  UNL1        0.0636
     12 C         142.9291  141.0074  168.5477 C.3     1  UNL1        0.0522
     13 C         142.9529  142.3997  166.3543 C.ar    1  UNL1        0.0296
     14 C         142.3078  142.7937  165.0587 C.ar    1  UNL1        0.0622
     15 C         142.9768  143.7921  164.1609 C.3     1  UNL1        0.0522
     16 N         140.9940  142.1894  164.6607 N.ar    1  UNL1       -0.2311
     17 C         140.3251  141.1910  165.5585 C.ar    1  UNL1        0.1604
     18 C         139.0370  140.4327  165.4326 C.ar    1  UNL1        0.0332
     19 C         137.7931  137.2197  166.4737 C.3     1  UNL1        0.0067
     20 C         137.7412  138.6448  166.9389 C.3     1  UNL1        0.0474
     21 C         139.6204  138.4418  158.8792 C.3     1  UNL1        0.0264
     22 C         140.9257  138.8514  158.2640 C.3     1  UNL1        0.0071
     23 C         142.2140  138.5605  158.9749 C.3     1  UNL1        0.0274
     24 C         142.9217  139.6522  159.7215 C.3     1  UNL1        0.0910
     25 O         142.5731  140.3836  158.4591 O.3     1  UNL1       -0.3866
     26 C         143.0245  138.5417  160.7246 C.3     1  UNL1        0.0443
     27 C         143.7140  138.7769  162.0358 C.3     1  UNL1        0.0745
     28 N         144.3006  140.1226  162.3440 N.3     1  UNL1       -0.2738
     29 C         144.1978  141.2332  161.3409 C.3     1  UNL1        0.0745
     30 C         143.5083  140.9979  160.0297 C.3     1  UNL1        0.0443
     31 H         142.0973  139.7868  157.8605 H       1  UNL1        0.2102
     32 C         144.9901  140.3579  163.6552 C.3     1  UNL1        0.0576
     33 C         145.8523  141.5708  163.8422 C.3     1  UNL1        0.0173
     34 C         144.8171  139.3800  164.7794 C.3     1  UNL1        0.0173
@<TRIPOS>BOND
     1    19    20    1
     2    20     8    1
     3     8     9   ar
     4     9    10   ar
     5    10    11   ar
     6    11    12    1
     7    11    13   ar
     8    13    14   ar
     9    14    15    1
    10    14    16   ar
    11    16    17   ar
    12    17    18   ar
    13    18     7    1
    14     7     1    1
    15     1     2   ar
    16     2     3   ar
    17     3     4   ar
    18     4    21    1
    19    21    22    1
    20    22    23    1
    21    23    24    1
    22    24    25    1
    23    24    26    1
    24    26    27    1
    25    27    28    1
    26    28    32    1
    27    32    33    1
    28    32    34    1
    29    28    29    1
    30    29    30    1
    31     4     5   ar
    32     5     6   ar
    33    18     8   ar
    34     6     1   ar
    35    17    10   ar
    36    30    24    1
    37    25    31    1
@<TRIPOS>MOLECULE
*****
 34 37 0 0 0
SMALL
GASTEIGER

@<TRIPOS>ATOM
      1 C         138.3280  139.9000  162.4040 C.ar    1  UNL1       -0.0177
      2 C         138.3883  139.8729  163.9026 C.ar    1  UNL1       -0.0043
      3 C         138.1461  141.1290  164.6857 C.ar    1  UNL1       -0.0046
      4 C         137.8435  142.4123  163.9704 C.ar    1  UNL1       -0.0222
      5 C         137.7832  142.4394  162.4719 C.ar    1  UNL1       -0.0046
      6 C         138.0254  141.1833  161.6887 C.ar    1  UNL1       -0.0043
      7 C         138.5703  138.6438  161.6208 C.3     1  UNL1        0.0570
      8 C         141.1462  138.0519  161.2216 C.ar    1  UNL1        0.0782
      9 N         142.0708  138.0824  160.0409 N.ar    1  UNL1       -0.1687
     10 N         141.2918  138.5677  158.8544 N.ar    1  UNL1       -0.2168
     11 C         141.6812  138.7991  157.4245 C.ar    1  UNL1        0.0636
     12 C         143.0874  138.5297  156.9771 C.3     1  UNL1        0.0522
     13 C         140.6645  139.2998  156.4420 C.ar    1  UNL1        0.0296
     14 C         139.2583  139.5692  156.8894 C.ar    1  UNL1        0.0622
     15 C         138.2415  140.0700  155.9068 C.3     1  UNL1        0.0522
     16 N         138.8689  139.3378  158.3193 N.ar    1  UNL1       -0.2311
     17 C         139.8857  138.8371  159.3019 C.ar    1  UNL1        0.1604
     18 C         139.7957  138.5183  160.7648 C.ar    1  UNL1        0.0332
     19 C         141.9423  138.6538  163.6203 C.3     1  UNL1        0.0067
     20 C         141.5084  137.6291  162.6145 C.3     1  UNL1        0.0474
     21 C         137.6012  143.6684  164.7537 C.3     1  UNL1        0.0264
     22 C         138.6264  144.7635  164.7510 C.3     1  UNL1        0.0071
     23 C         140.0564  144.4529  165.0801 C.3     1  UNL1        0.0274
     24 C         141.0676  144.3212  163.9800 C.3     1  UNL1        0.0910
     25 O         140.3540  145.5617  163.5307 O.3     1  UNL1       -0.3866
     26 C         141.4300  143.1264  164.8114 C.3     1  UNL1        0.0443
     27 C         142.5557  142.2307  164.3866 C.3     1  UNL1        0.0745
     28 N         143.3191  142.5297  163.1304 N.3     1  UNL1       -0.2738
     29 C         142.9566  143.7245  162.2991 C.3     1  UNL1        0.0745
     30 C         141.8309  144.6202  162.7239 C.3     1  UNL1        0.0443
     31 H         139.6509  145.7773  164.1632 H       1  UNL1        0.2102
     32 C         144.4448  141.6340  162.7056 C.3     1  UNL1        0.0576
     33 C         144.2676  140.7089  161.5383 C.3     1  UNL1        0.0173
     34 C         145.7478  141.6636  163.4482 C.3     1  UNL1        0.0173
@<TRIPOS>BOND
     1    19    20    1
     2    20     8    1
     3     8     9   ar
     4     9    10   ar
     5    10    11   ar
     6    11    12    1
     7    11    13   ar
     8    13    14   ar
     9    14    15    1
    10    14    16   ar
    11    16    17   ar
    12    17    18   ar
    13    18     7    1
    14     7     1    1
    15     1     2   ar
    16     2     3   ar
    17     3     4   ar
    18     4    21    1
    19    21    22    1
    20    22    23    1
    21    23    24    1
    22    24    25    1
    23    24    26    1
    24    26    27    1
    25    27    28    1
    26    28    32    1
    27    32    33    1
    28    32    34    1
    29    28    29    1
    30    29    30    1
    31     4     5   ar
    32     5     6   ar
    33    18     8   ar
    34     6     1   ar
    35    17    10   ar
    36    30    24    1
    37    25    31    1
@<TRIPOS>MOLECULE
*****
 34 37 0 0 0
SMALL
GASTEIGER

@<TRIPOS>ATOM
      1 C         138.5242  140.6587  164.8537 C.ar    1  UNL1       -0.0177
      2 C         139.3098  141.7772  165.4718 C.ar    1  UNL1       -0.0043
      3 C         139.8280  141.6444  166.8731 C.ar    1  UNL1       -0.0046
      4 C         139.5608  140.3934  167.6563 C.ar    1  UNL1       -0.0222
      5 C         138.7752  139.2750  167.0382 C.ar    1  UNL1       -0.0046
      6 C         138.2570  139.4077  165.6369 C.ar    1  UNL1       -0.0043
      7 C         138.0059  140.7914  163.4522 C.3     1  UNL1        0.0570
      8 C         139.5553  139.7894  161.5182 C.ar    1  UNL1        0.0782
      9 N         140.4583  140.3740  160.4729 N.ar    1  UNL1       -0.1687
     10 N         140.4267  141.8669  160.6153 N.ar    1  UNL1       -0.2168
     11 C         141.1188  142.9621  159.8594 C.ar    1  UNL1        0.0636
     12 C         142.0413  142.6241  158.7259 C.3     1  UNL1        0.0522
     13 C         140.8883  144.3954  160.2369 C.ar    1  UNL1        0.0296
     14 C         139.9658  144.7335  161.3703 C.ar    1  UNL1        0.0622
     15 C         139.7353  146.1668  161.7478 C.3     1  UNL1        0.0522
     16 N         139.2737  143.6382  162.1262 N.ar    1  UNL1       -0.2311
     17 C         139.5042  142.2050  161.7487 C.ar    1  UNL1        0.1604
     18 C         138.9656  140.9210  162.3068 C.ar    1  UNL1        0.0332
     19 C         140.0053  137.5915  162.8285 C.3     1  UNL1        0.0067
     20 C         139.2888  138.3295  161.7367 C.3     1  UNL1        0.0474
     21 C         140.0791  140.2608  169.0577 C.3     1  UNL1        0.0264
     22 C         141.4942  139.8239  169.2958 C.3     1  UNL1        0.0071
     23 C         142.6116  140.4375  168.5053 C.3     1  UNL1        0.0274
     24 C         143.1433  139.7368  167.2903 C.3     1  UNL1        0.0910
     25 O         143.0171  138.5727  168.2277 O.3     1  UNL1       -0.3866
     26 C         143.0850  141.1443  166.7748 C.3     1  UNL1        0.0443
     27 C         143.5145  141.4468  165.3698 C.3     1  UNL1        0.0745
     28 N         144.0024  140.3420  164.4802 N.3     1  UNL1       -0.2738
     29 C         144.0607  138.9345  164.9958 C.3     1  UNL1        0.0745
     30 C         143.6312  138.6320  166.4007 C.3     1  UNL1        0.0443
     31 H         142.6742  138.8806  169.0813 H       1  UNL1        0.2102
     32 C         144.4318  140.6445  163.0753 C.3     1  UNL1        0.0576
     33 C         143.9985  139.7525  161.9500 C.3     1  UNL1        0.0173
     34 C         145.2948  141.8392  162.7957 C.3     1  UNL1        0.0173
@<TRIPOS>BOND
     1    19    20    1
     2    20     8    1
     3     8     9   ar
     4     9    10   ar
     5    10    11   ar
     6    11    12    1
     7    11    13   ar
     8    13    14   ar
     9    14    15    1
    10    14    16   ar
    11    16    17   ar
    12    17    18   ar
    13    18     7    1
    14     7     1    1
    15     1     2   ar
    16     2     3   ar
    17     3     4   ar
    18     4    21    1
    19    21    22    1
    20    22    23    1
    21    23    24    1
    22    24    25    1
    23    24    26    1
    24    26    27    1
    25    27    28    1
    26    28    32    1
    27    32    33    1
    28    32    34    1
    29    28    29    1
    30    29    30    1
    31     4     5   ar
    32     5     6   ar
    33    18     8   ar
    34     6     1   ar
    35    17    10   ar
    36    30    24    1
    37    25    31    1
@<TRIPOS>MOLECULE
*****
 34 37 0 0 0
SMALL
GASTEIGER

@<TRIPOS>ATOM
      1 C         138.9477  141.0867  165.0792 C.ar    1  UNL1       -0.0177
      2 C         139.5311  142.1800  165.9244 C.ar    1  UNL1       -0.0043
      3 C         139.8666  141.9180  167.3627 C.ar    1  UNL1       -0.0046
      4 C         139.6188  140.5627  167.9558 C.ar    1  UNL1       -0.0222
      5 C         139.0354  139.4694  167.1106 C.ar    1  UNL1       -0.0046
      6 C         138.6999  139.7315  165.6724 C.ar    1  UNL1       -0.0043
      7 C         138.6121  141.3487  163.6409 C.3     1  UNL1        0.0570
      8 C         139.6535  140.0968  161.5211 C.ar    1  UNL1        0.0782
      9 N         140.8816  140.2791  160.6794 N.ar    1  UNL1       -0.1687
     10 N         141.6430  141.4537  161.2185 N.ar    1  UNL1       -0.2168
     11 C         142.9282  142.0984  160.7913 C.ar    1  UNL1        0.0636
     12 C         143.6857  141.5547  159.6163 C.3     1  UNL1        0.0522
     13 C         143.4560  143.2867  161.5392 C.ar    1  UNL1        0.0296
     14 C         142.6985  143.8303  162.7142 C.ar    1  UNL1        0.0622
     15 C         143.2263  145.0187  163.4620 C.3     1  UNL1        0.0522
     16 N         141.4133  143.1856  163.1414 N.ar    1  UNL1       -0.2311
     17 C         140.8855  141.9973  162.3935 C.ar    1  UNL1        0.1604
     18 C         139.6559  141.1587  162.5805 C.ar    1  UNL1        0.0332
     19 C         138.4697  137.9350  162.3427 C.3     1  UNL1        0.0067
     20 C         138.6068  139.0385  161.3360 C.3     1  UNL1        0.0474
     21 C         139.9544  140.3007  169.3941 C.3     1  UNL1        0.0264
     22 C         141.2540  139.6435  169.7535 C.3     1  UNL1        0.0071
     23 C         142.5456  140.3824  169.5645 C.3     1  UNL1        0.0274
     24 C         142.8868  140.9658  168.2253 C.3     1  UNL1        0.0910
     25 O         142.8608  142.2153  169.0547 O.3     1  UNL1       -0.3866
     26 C         142.7943  139.5137  167.8610 C.3     1  UNL1        0.0443
     27 C         143.0339  139.0788  166.4455 C.3     1  UNL1        0.0745
     28 N         143.3661  140.0961  165.3944 N.3     1  UNL1       -0.2738
     29 C         143.4587  141.5483  165.7588 C.3     1  UNL1        0.0745
     30 C         143.2190  141.9830  167.1742 C.3     1  UNL1        0.0443
     31 H         142.6468  141.9892  169.9734 H       1  UNL1        0.2102
     32 C         143.6058  139.6613  163.9790 C.3     1  UNL1        0.0576
     33 C         142.6803  138.6751  163.3303 C.3     1  UNL1        0.0173
     34 C         144.7711  140.2129  163.2122 C.3     1  UNL1        0.0173
@<TRIPOS>BOND
     1    19    20    1
     2    20     8    1
     3     8     9   ar
     4     9    10   ar
     5    10    11   ar
     6    11    12    1
     7    11    13   ar
     8    13    14   ar
     9    14    15    1
    10    14    16   ar
    11    16    17   ar
    12    17    18   ar
    13    18     7    1
    14     7     1    1
    15     1     2   ar
    16     2     3   ar
    17     3     4   ar
    18     4    21    1
    19    21    22    1
    20    22    23    1
    21    23    24    1
    22    24    25    1
    23    24    26    1
    24    26    27    1
    25    27    28    1
    26    28    32    1
    27    32    33    1
    28    32    34    1
    29    28    29    1
    30    29    30    1
    31     4     5   ar
    32     5     6   ar
    33    18     8   ar
    34     6     1   ar
    35    17    10   ar
    36    30    24    1
    37    25    31    1
@<TRIPOS>MOLECULE
*****
 34 37 0 0 0
SMALL
GASTEIGER

@<TRIPOS>ATOM
      1 C         138.6301  138.7646  162.7080 C.ar    1  UNL1       -0.0177
      2 C         138.1950  140.0455  163.3562 C.ar    1  UNL1       -0.0043
      3 C         138.1231  140.1427  164.8513 C.ar    1  UNL1       -0.0046
      4 C         138.4862  138.9591  165.6982 C.ar    1  UNL1       -0.0222
      5 C         138.9213  137.6783  165.0500 C.ar    1  UNL1       -0.0046
      6 C         138.9932  137.5811  163.5549 C.ar    1  UNL1       -0.0043
      7 C         138.7020  138.6674  161.2128 C.3     1  UNL1        0.0570
      8 C         140.7774  140.2808  160.7285 C.ar    1  UNL1        0.0782
      9 N         141.0988  141.3122  159.6879 N.ar    1  UNL1       -0.1687
     10 N         139.9373  141.3942  158.7423 N.ar    1  UNL1       -0.2168
     11 C         139.6917  142.2353  157.5248 C.ar    1  UNL1        0.0636
     12 C         140.7309  143.2161  157.0686 C.3     1  UNL1        0.0522
     13 C         138.4068  142.0955  156.7635 C.ar    1  UNL1        0.0296
     14 C         137.3676  141.1147  157.2196 C.ar    1  UNL1        0.0622
     15 C         136.0827  140.9750  156.4582 C.3     1  UNL1        0.0522
     16 N         137.6132  140.2737  158.4371 N.ar    1  UNL1       -0.2311
     17 C         138.8981  140.4134  159.1984 C.ar    1  UNL1        0.1604
     18 C         139.4173  139.7253  160.4259 C.ar    1  UNL1        0.0332
     19 C         142.5926  138.7097  161.7219 C.3     1  UNL1        0.0067
     20 C         141.6611  139.8758  161.8709 C.3     1  UNL1        0.0474
     21 C         138.4143  139.0564  167.1933 C.3     1  UNL1        0.0264
     22 C         139.3371  139.9815  167.9300 C.3     1  UNL1        0.0071
     23 C         140.7869  140.0526  167.5519 C.3     1  UNL1        0.0274
     24 C         141.2848  141.1814  166.6987 C.3     1  UNL1        0.0910
     25 O         140.2073  141.8898  167.4649 O.3     1  UNL1       -0.3866
     26 C         142.1894  140.0810  166.2288 C.3     1  UNL1        0.0443
     27 C         143.2178  140.3554  165.1718 C.3     1  UNL1        0.0745
     28 N         143.3416  141.7302  164.5847 N.3     1  UNL1       -0.2738
     29 C         142.4369  142.8306  165.0546 C.3     1  UNL1        0.0745
     30 C         141.4086  142.5562  166.1116 C.3     1  UNL1        0.0443
     31 H         139.7825  141.2676  168.0759 H       1  UNL1        0.2102
     32 C         144.3699  142.0046  163.5277 C.3     1  UNL1        0.0576
     33 C         145.7856  141.5492  163.7224 C.3     1  UNL1        0.0173
     34 C         143.9822  142.7345  162.2759 C.3     1  UNL1        0.0173
@<TRIPOS>BOND
     1    19    20    1
     2    20     8    1
     3     8     9   ar
     4     9    10   ar
     5    10    11   ar
     6    11    12    1
     7    11    13   ar
     8    13    14   ar
     9    14    15    1
    10    14    16   ar
    11    16    17   ar
    12    17    18   ar
    13    18     7    1
    14     7     1    1
    15     1     2   ar
    16     2     3   ar
    17     3     4   ar
    18     4    21    1
    19    21    22    1
    20    22    23    1
    21    23    24    1
    22    24    25    1
    23    24    26    1
    24    26    27    1
    25    27    28    1
    26    28    32    1
    27    32    33    1
    28    32    34    1
    29    28    29    1
    30    29    30    1
    31     4     5   ar
    32     5     6   ar
    33    18     8   ar
    34     6     1   ar
    35    17    10   ar
    36    30    24    1
    37    25    31    1
