@<TRIPOS>MOLECULE
*****
 28 32 0 0 0
SMALL
GASTEIGER

@<TRIPOS>ATOM
      1 N         144.2102  142.8848  169.5612 N.pl3   1  UNL1       -0.3133
      2 C         142.8771  142.2750  169.8789 C.2     1  UNL1        0.2770
      3 N         141.9980  141.5283  168.9198 N.2     1  UNL1       -0.2202
      4 C         140.7666  141.0966  169.6597 C.3     1  UNL1        0.1583
      5 C         140.8847  141.5764  171.0760 C.3     1  UNL1        0.2351
      6 O         142.1891  142.3047  171.2115 O.2     1  UNL1       -0.4478
      7 C         140.7885  140.6831  168.2180 C.ar    1  UNL1        0.0357
      8 C         141.9584  141.0451  167.3516 C.ar    1  UNL1        0.0008
      9 C         141.9803  140.6317  165.9099 C.ar    1  UNL1        0.0037
     10 C         140.8323  139.8563  165.3345 C.ar    1  UNL1        0.0032
     11 C         139.6626  139.4943  166.2008 C.ar    1  UNL1        0.0366
     12 C         139.6407  139.9078  167.6426 C.ar    1  UNL1        0.1364
     13 O         138.4709  139.5458  168.5089 O.3     1  UNL1       -0.4755
     14 C         138.4490  139.9592  169.9506 C.3     1  UNL1        0.2123
     15 C         139.5969  140.7346  170.5260 C.3     1  UNL1        0.1209
     16 C         139.6030  140.6193  170.1238 C.3     1  UNL1        0.1504
     17 O         139.5965  140.7405  170.5466 O.3     1  UNL1       -0.3532
     18 C         139.6030  140.6193  170.1238 C.3     1  UNL1        0.1504
     19 H         144.5805  142.8122  168.6519 H       1  UNL1        0.1466
     20 H         144.7148  143.3577  170.2619 H       1  UNL1        0.1466
     21 C         143.1501  140.9937  165.0435 C.ar    1  UNL1        0.0468
     22 C         143.2058  142.3389  164.3822 C.ar    1  UNL1        0.0168
     23 C         144.3755  142.7009  163.5159 C.ar    1  UNL1        0.0770
     24 CL        144.4312  144.0460  162.8546 Cl      1  UNL1       -0.0806
     25 C         145.4896  141.7176  163.3108 C.ar    1  UNL1        0.1126
     26 N         145.4340  140.3724  163.9721 N.ar    1  UNL1       -0.2156
     27 C         144.2641  140.0104  164.8385 C.ar    1  UNL1        0.2223
     28 F         144.2085  138.6652  165.4997 F       1  UNL1       -0.1832
@<TRIPOS>BOND
     1     1     2    1
     2     2     3    2
     3     3     4    1
     4     4     5    1
     5     5     6    1
     6     4     7    1
     7     7     8   ar
     8     8     9   ar
     9     9    21    1
    10    21    22   ar
    11    22    23   ar
    12    23    24    1
    13    23    25   ar
    14    25    26   ar
    15    26    27   ar
    16    27    28    1
    17     9    10   ar
    18    10    11   ar
    19    11    12   ar
    20    12    13    1
    21    13    14    1
    22    14    15    1
    23    15    16    1
    24    16    17    1
    25    17    18    1
    26     6     2    1
    27    12     7   ar
    28    18    15    1
    29    15     4    1
    30    27    21   ar
    31     1    19    1
    32     1    20    1
@<TRIPOS>MOLECULE
*****
 28 32 0 0 0
SMALL
GASTEIGER

@<TRIPOS>ATOM
      1 N         138.7692  145.0179  165.7537 N.pl3   1  UNL1       -0.3133
      2 C         138.4253  144.0648  164.6479 C.2     1  UNL1        0.2770
      3 N         138.5555  142.5712  164.6988 N.2     1  UNL1       -0.2202
      4 C         138.1014  142.0211  163.3792 C.3     1  UNL1        0.1583
      5 C         137.6905  143.1746  162.5128 C.3     1  UNL1        0.2351
      6 O         137.8907  144.4376  163.2969 O.2     1  UNL1       -0.4478
      7 C         138.5460  140.9735  164.3565 C.ar    1  UNL1        0.0357
      8 C         139.0273  141.3752  165.7192 C.ar    1  UNL1        0.0008
      9 C         139.4719  140.3277  166.6965 C.ar    1  UNL1        0.0037
     10 C         139.4351  138.8785  166.3110 C.ar    1  UNL1        0.0032
     11 C         138.9537  138.4769  164.9483 C.ar    1  UNL1        0.0366
     12 C         138.5092  139.5244  163.9710 C.ar    1  UNL1        0.1364
     13 O         138.0279  139.1228  162.6084 O.3     1  UNL1       -0.4755
     14 C         137.5833  140.1703  161.6311 C.3     1  UNL1        0.2123
     15 C         137.6201  141.6195  162.0165 C.3     1  UNL1        0.1209
     16 C         137.7441  141.3272  162.2892 C.3     1  UNL1        0.1504
     17 O         137.6137  141.6344  162.0026 O.3     1  UNL1       -0.3532
     18 C         137.7441  141.3272  162.2892 C.3     1  UNL1        0.1504
     19 H         139.1156  144.6751  166.6091 H       1  UNL1        0.1466
     20 H         138.6486  145.9864  165.6242 H       1  UNL1        0.1466
     21 C         139.9532  140.7293  168.0592 C.ar    1  UNL1        0.0468
     22 C         141.2048  141.5435  168.2027 C.ar    1  UNL1        0.0168
     23 C         141.6861  141.9451  169.5654 C.ar    1  UNL1        0.0770
     24 CL        142.9377  142.7593  169.7089 Cl      1  UNL1       -0.0806
     25 C         140.9159  141.5326  170.7846 C.ar    1  UNL1        0.1126
     26 N         139.6643  140.7184  170.6412 N.ar    1  UNL1       -0.2156
     27 C         139.1829  140.3167  169.2784 C.ar    1  UNL1        0.2223
     28 F         137.9314  139.5025  169.1350 F       1  UNL1       -0.1832
@<TRIPOS>BOND
     1     1     2    1
     2     2     3    2
     3     3     4    1
     4     4     5    1
     5     5     6    1
     6     4     7    1
     7     7     8   ar
     8     8     9   ar
     9     9    21    1
    10    21    22   ar
    11    22    23   ar
    12    23    24    1
    13    23    25   ar
    14    25    26   ar
    15    26    27   ar
    16    27    28    1
    17     9    10   ar
    18    10    11   ar
    19    11    12   ar
    20    12    13    1
    21    13    14    1
    22    14    15    1
    23    15    16    1
    24    16    17    1
    25    17    18    1
    26     6     2    1
    27    12     7   ar
    28    18    15    1
    29    15     4    1
    30    27    21   ar
    31     1    19    1
    32     1    20    1
@<TRIPOS>MOLECULE
*****
 28 32 0 0 0
SMALL
GASTEIGER

@<TRIPOS>ATOM
      1 N         143.1656  142.1103  166.1020 N.pl3   1  UNL1       -0.3133
      2 C         142.1828  141.8355  167.2013 C.2     1  UNL1        0.2770
      3 N         141.0144  140.8979  167.1253 N.2     1  UNL1       -0.2202
      4 C         140.3053  140.9329  168.4468 C.3     1  UNL1        0.1583
      5 C         141.0355  141.8921  169.3394 C.3     1  UNL1        0.2351
      6 O         142.1959  142.4499  168.5696 O.2     1  UNL1       -0.4478
      7 C         139.6818  140.0077  167.4441 C.ar    1  UNL1        0.0357
      8 C         140.2827  139.8686  166.0767 C.ar    1  UNL1        0.0008
      9 C         139.6592  138.9434  165.0741 C.ar    1  UNL1        0.0037
     10 C         138.4349  138.1572  165.4389 C.ar    1  UNL1        0.0032
     11 C         137.8341  138.2963  166.8063 C.ar    1  UNL1        0.0366
     12 C         138.4575  139.2215  167.8089 C.ar    1  UNL1        0.1364
     13 O         137.8567  139.3606  169.1762 O.3     1  UNL1       -0.4755
     14 C         138.4802  140.2858  170.1788 C.3     1  UNL1        0.2123
     15 C         139.7045  141.0719  169.8141 C.3     1  UNL1        0.1209
     16 C         139.5305  140.8138  169.5344 C.3     1  UNL1        0.1504
     17 O         139.7134  141.0851  169.8284 O.3     1  UNL1       -0.3532
     18 C         139.5305  140.8138  169.5344 C.3     1  UNL1        0.1504
     19 H         143.0730  141.6553  165.2339 H       1  UNL1        0.1466
     20 H         143.9031  142.7457  166.2486 H       1  UNL1        0.1466
     21 C         140.2600  138.8043  163.7068 C.ar    1  UNL1        0.0468
     22 C         140.0828  139.8975  162.6950 C.ar    1  UNL1        0.0168
     23 C         140.6836  139.7584  161.3276 C.ar    1  UNL1        0.0770
     24 CL        140.5064  140.8516  160.3159 Cl      1  UNL1       -0.0806
     25 C         141.4616  138.5262  160.9720 C.ar    1  UNL1        0.1126
     26 N         141.6388  137.4331  161.9838 N.ar    1  UNL1       -0.2156
     27 C         141.0380  137.5722  163.3512 C.ar    1  UNL1        0.2223
     28 F         141.2152  136.4790  164.3629 F       1  UNL1       -0.1832
@<TRIPOS>BOND
     1     1     2    1
     2     2     3    2
     3     3     4    1
     4     4     5    1
     5     5     6    1
     6     4     7    1
     7     7     8   ar
     8     8     9   ar
     9     9    21    1
    10    21    22   ar
    11    22    23   ar
    12    23    24    1
    13    23    25   ar
    14    25    26   ar
    15    26    27   ar
    16    27    28    1
    17     9    10   ar
    18    10    11   ar
    19    11    12   ar
    20    12    13    1
    21    13    14    1
    22    14    15    1
    23    15    16    1
    24    16    17    1
    25    17    18    1
    26     6     2    1
    27    12     7   ar
    28    18    15    1
    29    15     4    1
    30    27    21   ar
    31     1    19    1
    32     1    20    1
@<TRIPOS>MOLECULE
*****
 28 32 0 0 0
SMALL
GASTEIGER

@<TRIPOS>ATOM
      1 N         144.9111  139.5707  164.6449 N.pl3   1  UNL1       -0.3133
      2 C         143.7296  139.0480  163.8830 C.2     1  UNL1        0.2770
      3 N         142.3008  139.0835  164.3387 N.2     1  UNL1       -0.2202
      4 C         141.4574  138.4555  163.2689 C.3     1  UNL1        0.1583
      5 C         142.3649  138.0318  162.1522 C.3     1  UNL1        0.2351
      6 O         143.7692  138.3980  162.5318 O.2     1  UNL1       -0.4478
      7 C         140.6784  138.9314  164.4591 C.ar    1  UNL1        0.0357
      8 C         141.3888  139.5813  165.6094 C.ar    1  UNL1        0.0008
      9 C         140.6098  140.0573  166.7996 C.ar    1  UNL1        0.0037
     10 C         139.1204  139.8834  166.8396 C.ar    1  UNL1        0.0032
     11 C         138.4101  139.2335  165.6893 C.ar    1  UNL1        0.0366
     12 C         139.1891  138.7576  164.4991 C.ar    1  UNL1        0.1364
     13 O         138.4788  138.1077  163.3489 O.3     1  UNL1       -0.4755
     14 C         139.2577  137.6318  162.1586 C.3     1  UNL1        0.2123
     15 C         140.7471  137.8056  162.1187 C.3     1  UNL1        0.1209
     16 C         140.5297  137.9384  162.4507 C.3     1  UNL1        0.1504
     17 O         140.7582  137.7988  162.1017 O.3     1  UNL1       -0.3532
     18 C         140.5297  137.9384  162.4507 C.3     1  UNL1        0.1504
     19 H         144.7831  139.9831  165.5297 H       1  UNL1        0.1466
     20 H         145.8147  139.5015  164.2602 H       1  UNL1        0.1466
     21 C         141.3201  140.7071  167.9499 C.ar    1  UNL1        0.0468
     22 C         140.8482  142.0323  168.4707 C.ar    1  UNL1        0.0168
     23 C         141.5585  142.6821  169.6210 C.ar    1  UNL1        0.0770
     24 CL        141.0865  144.0073  170.1418 Cl      1  UNL1       -0.0806
     25 C         142.7408  142.0069  170.2504 C.ar    1  UNL1        0.1126
     26 N         143.2127  140.6817  169.7296 N.ar    1  UNL1       -0.2156
     27 C         142.5024  140.0318  168.5793 C.ar    1  UNL1        0.2223
     28 F         142.9744  138.7067  168.0585 F       1  UNL1       -0.1832
@<TRIPOS>BOND
     1     1     2    1
     2     2     3    2
     3     3     4    1
     4     4     5    1
     5     5     6    1
     6     4     7    1
     7     7     8   ar
     8     8     9   ar
     9     9    21    1
    10    21    22   ar
    11    22    23   ar
    12    23    24    1
    13    23    25   ar
    14    25    26   ar
    15    26    27   ar
    16    27    28    1
    17     9    10   ar
    18    10    11   ar
    19    11    12   ar
    20    12    13    1
    21    13    14    1
    22    14    15    1
    23    15    16    1
    24    16    17    1
    25    17    18    1
    26     6     2    1
    27    12     7   ar
    28    18    15    1
    29    15     4    1
    30    27    21   ar
    31     1    19    1
    32     1    20    1
@<TRIPOS>MOLECULE
*****
 28 32 0 0 0
SMALL
GASTEIGER

@<TRIPOS>ATOM
      1 N         139.2862  145.1897  164.6387 N.pl3   1  UNL1       -0.3133
      2 C         138.8050  144.0237  163.8271 C.2     1  UNL1        0.2770
      3 N         139.0006  142.5749  164.1631 N.2     1  UNL1       -0.2202
      4 C         138.3602  141.7575  163.0806 C.3     1  UNL1        0.1583
      5 C         137.7688  142.7010  162.0757 C.3     1  UNL1        0.2351
      6 O         138.0437  144.1017  162.5370 O.2     1  UNL1       -0.4478
      7 C         138.9986  140.9410  164.1649 C.ar    1  UNL1        0.0357
      8 C         139.6788  141.6225  165.3152 C.ar    1  UNL1        0.0008
      9 C         140.3172  140.8059  166.3995 C.ar    1  UNL1        0.0037
     10 C         140.2755  139.3079  166.3335 C.ar    1  UNL1        0.0032
     11 C         139.5954  138.6265  165.1833 C.ar    1  UNL1        0.0366
     12 C         138.9569  139.4430  164.0990 C.ar    1  UNL1        0.1364
     13 O         138.2767  138.7616  162.9488 O.3     1  UNL1       -0.4755
     14 C         137.6383  139.5781  161.8645 C.3     1  UNL1        0.2123
     15 C         137.6800  141.0760  161.9304 C.3     1  UNL1        0.1209
     16 C         137.8581  140.8482  162.2330 C.3     1  UNL1        0.1504
     17 O         137.6709  141.0877  161.9150 O.3     1  UNL1       -0.3532
     18 C         137.8581  140.8482  162.2330 C.3     1  UNL1        0.1504
     19 H         139.7803  145.0360  165.4763 H       1  UNL1        0.1466
     20 H         139.1080  146.1087  164.3338 H       1  UNL1        0.1466
     21 C         140.9974  141.4874  167.5497 C.ar    1  UNL1        0.0468
     22 C         140.3158  142.6189  168.2605 C.ar    1  UNL1        0.0168
     23 C         140.9960  143.3003  169.4107 C.ar    1  UNL1        0.0770
     24 CL        140.3143  144.4317  170.1215 Cl      1  UNL1       -0.0806
     25 C         142.3577  142.8503  169.8501 C.ar    1  UNL1        0.1126
     26 N         143.0393  141.7189  169.1393 N.ar    1  UNL1       -0.2156
     27 C         142.3592  141.0374  167.9891 C.ar    1  UNL1        0.2223
     28 F         143.0408  139.9060  167.2783 F       1  UNL1       -0.1832
@<TRIPOS>BOND
     1     1     2    1
     2     2     3    2
     3     3     4    1
     4     4     5    1
     5     5     6    1
     6     4     7    1
     7     7     8   ar
     8     8     9   ar
     9     9    21    1
    10    21    22   ar
    11    22    23   ar
    12    23    24    1
    13    23    25   ar
    14    25    26   ar
    15    26    27   ar
    16    27    28    1
    17     9    10   ar
    18    10    11   ar
    19    11    12   ar
    20    12    13    1
    21    13    14    1
    22    14    15    1
    23    15    16    1
    24    16    17    1
    25    17    18    1
    26     6     2    1
    27    12     7   ar
    28    18    15    1
    29    15     4    1
    30    27    21   ar
    31     1    19    1
    32     1    20    1
@<TRIPOS>MOLECULE
*****
 28 32 0 0 0
SMALL
GASTEIGER

@<TRIPOS>ATOM
      1 N         137.8454  140.3671  164.5654 N.pl3   1  UNL1       -0.3133
      2 C         138.0862  141.7099  163.9420 C.2     1  UNL1        0.2770
      3 N         139.3843  142.4616  163.9412 N.2     1  UNL1       -0.2202
      4 C         139.1716  143.7532  163.2086 C.3     1  UNL1        0.1583
      5 C         137.7420  143.7997  162.7566 C.3     1  UNL1        0.2351
      6 O         137.0712  142.5368  163.2098 O.2     1  UNL1       -0.4478
      7 C         140.5681  143.5666  163.7233 C.ar    1  UNL1        0.0357
      8 C         140.9295  142.3209  164.4767 C.ar    1  UNL1        0.0008
      9 C         142.3261  142.1343  164.9914 C.ar    1  UNL1        0.0037
     10 C         143.3611  143.1934  164.7527 C.ar    1  UNL1        0.0032
     11 C         142.9997  144.4391  163.9993 C.ar    1  UNL1        0.0366
     12 C         141.6031  144.6257  163.4846 C.ar    1  UNL1        0.1364
     13 O         141.2417  145.8713  162.7312 O.3     1  UNL1       -0.4755
     14 C         139.8451  146.0579  162.2165 C.3     1  UNL1        0.2123
     15 C         138.8101  144.9989  162.4552 C.3     1  UNL1        0.1209
     16 C         139.1997  144.9468  162.5988 C.3     1  UNL1        0.1504
     17 O         138.7902  145.0015  162.4479 O.3     1  UNL1       -0.3532
     18 C         139.1997  144.9468  162.5988 C.3     1  UNL1        0.1504
     19 H         138.5789  139.9000  165.0269 H       1  UNL1        0.1466
     20 H         136.9538  139.9528  164.5131 H       1  UNL1        0.1466
     21 C         142.6875  140.8886  165.7447 C.ar    1  UNL1        0.0468
     22 C         142.3095  140.7497  167.1897 C.ar    1  UNL1        0.0168
     23 C         142.6710  139.5040  167.9431 C.ar    1  UNL1        0.0770
     24 CL        142.2930  139.3651  169.3880 Cl      1  UNL1       -0.0806
     25 C         143.4105  138.3972  167.2516 C.ar    1  UNL1        0.1126
     26 N         143.7885  138.5361  165.8067 N.ar    1  UNL1       -0.2156
     27 C         143.4270  139.7818  165.0532 C.ar    1  UNL1        0.2223
     28 F         143.8051  139.9207  163.6083 F       1  UNL1       -0.1832
@<TRIPOS>BOND
     1     1     2    1
     2     2     3    2
     3     3     4    1
     4     4     5    1
     5     5     6    1
     6     4     7    1
     7     7     8   ar
     8     8     9   ar
     9     9    21    1
    10    21    22   ar
    11    22    23   ar
    12    23    24    1
    13    23    25   ar
    14    25    26   ar
    15    26    27   ar
    16    27    28    1
    17     9    10   ar
    18    10    11   ar
    19    11    12   ar
    20    12    13    1
    21    13    14    1
    22    14    15    1
    23    15    16    1
    24    16    17    1
    25    17    18    1
    26     6     2    1
    27    12     7   ar
    28    18    15    1
    29    15     4    1
    30    27    21   ar
    31     1    19    1
    32     1    20    1
@<TRIPOS>MOLECULE
*****
 28 32 0 0 0
SMALL
GASTEIGER

@<TRIPOS>ATOM
      1 N         139.0543  145.1003  164.9184 N.pl3   1  UNL1       -0.3133
      2 C         140.2474  144.8551  164.0432 C.2     1  UNL1        0.2770
      3 N         141.2769  143.7814  164.2365 N.2     1  UNL1       -0.2202
      4 C         142.2865  143.9031  163.1337 C.3     1  UNL1        0.1583
      5 C         141.8809  145.0521  162.2589 C.3     1  UNL1        0.2351
      6 O         140.6207  145.6405  162.8210 O.2     1  UNL1       -0.4478
      7 C         142.5651  142.7861  164.0953 C.ar    1  UNL1        0.0357
      8 C         141.6400  142.5428  165.2507 C.ar    1  UNL1        0.0008
      9 C         141.9186  141.4258  166.2123 C.ar    1  UNL1        0.0037
     10 C         143.1224  140.5520  166.0184 C.ar    1  UNL1        0.0032
     11 C         144.0474  140.7953  164.8630 C.ar    1  UNL1        0.0366
     12 C         143.7688  141.9124  163.9014 C.ar    1  UNL1        0.1364
     13 O         144.6939  142.1556  162.7460 O.3     1  UNL1       -0.4755
     14 C         144.4152  143.2727  161.7845 C.3     1  UNL1        0.2123
     15 C         143.2116  144.1464  161.9783 C.3     1  UNL1        0.1209
     16 C         143.2893  143.8348  162.2466 C.3     1  UNL1        0.1504
     17 O         143.2076  144.1624  161.9646 O.3     1  UNL1       -0.3532
     18 C         143.2893  143.8348  162.2466 C.3     1  UNL1        0.1504
     19 H         138.8933  144.5277  165.7029 H       1  UNL1        0.1466
     20 H         138.4322  145.8339  164.7084 H       1  UNL1        0.1466
     21 C         140.9935  141.1825  167.3677 C.ar    1  UNL1        0.0468
     22 C         140.9274  142.1686  168.4961 C.ar    1  UNL1        0.0168
     23 C         140.0024  141.9254  169.6515 C.ar    1  UNL1        0.0770
     24 CL        139.9363  142.9115  170.7798 Cl      1  UNL1       -0.0806
     25 C         139.1434  140.6959  169.6786 C.ar    1  UNL1        0.1126
     26 N         139.2095  139.7098  168.5503 N.ar    1  UNL1       -0.2156
     27 C         140.1346  139.9531  167.3948 C.ar    1  UNL1        0.2223
     28 F         140.2007  138.9670  166.2665 F       1  UNL1       -0.1832
@<TRIPOS>BOND
     1     1     2    1
     2     2     3    2
     3     3     4    1
     4     4     5    1
     5     5     6    1
     6     4     7    1
     7     7     8   ar
     8     8     9   ar
     9     9    21    1
    10    21    22   ar
    11    22    23   ar
    12    23    24    1
    13    23    25   ar
    14    25    26   ar
    15    26    27   ar
    16    27    28    1
    17     9    10   ar
    18    10    11   ar
    19    11    12   ar
    20    12    13    1
    21    13    14    1
    22    14    15    1
    23    15    16    1
    24    16    17    1
    25    17    18    1
    26     6     2    1
    27    12     7   ar
    28    18    15    1
    29    15     4    1
    30    27    21   ar
    31     1    19    1
    32     1    20    1
@<TRIPOS>MOLECULE
*****
 28 32 0 0 0
SMALL
GASTEIGER

@<TRIPOS>ATOM
      1 N         142.7136  142.7900  164.5912 N.pl3   1  UNL1       -0.3133
      2 C         142.5407  142.3539  166.0159 C.2     1  UNL1        0.2770
      3 N         141.4188  141.5140  166.5509 N.2     1  UNL1       -0.2202
      4 C         141.6441  141.3220  168.0215 C.3     1  UNL1        0.1583
      5 C         142.9051  142.0432  168.3953 C.3     1  UNL1        0.2351
      6 O         143.4592  142.6809  167.1557 O.2     1  UNL1       -0.4478
      7 C         140.4080  140.6504  167.5008 C.ar    1  UNL1        0.0357
      8 C         140.0531  140.7555  166.0472 C.ar    1  UNL1        0.0008
      9 C         138.8170  140.0839  165.5265 C.ar    1  UNL1        0.0037
     10 C         137.9360  139.3071  166.4595 C.ar    1  UNL1        0.0032
     11 C         138.2909  139.2020  167.9130 C.ar    1  UNL1        0.0366
     12 C         139.5270  139.8736  168.4337 C.ar    1  UNL1        0.1364
     13 O         139.8820  139.7685  169.8873 O.3     1  UNL1       -0.4755
     14 C         141.1180  140.4401  170.4079 C.3     1  UNL1        0.2123
     15 C         141.9991  141.2169  169.4751 C.3     1  UNL1        0.1209
     16 C         141.6542  141.0295  169.3298 C.3     1  UNL1        0.1504
     17 O         142.0167  141.2265  169.4825 O.3     1  UNL1       -0.3532
     18 C         141.6542  141.0295  169.3298 C.3     1  UNL1        0.1504
     19 H         142.0535  142.5232  163.9112 H       1  UNL1        0.1466
     20 H         143.4871  143.3431  164.3362 H       1  UNL1        0.1466
     21 C         138.4621  140.1890  164.0729 C.ar    1  UNL1        0.0468
     22 C         138.8485  139.0923  163.1253 C.ar    1  UNL1        0.0168
     23 C         138.4935  139.1974  161.6717 C.ar    1  UNL1        0.0770
     24 CL        138.8799  138.1008  160.7241 Cl      1  UNL1       -0.0806
     25 C         137.7521  140.3992  161.1657 C.ar    1  UNL1        0.1126
     26 N         137.3657  141.4959  162.1133 N.ar    1  UNL1       -0.2156
     27 C         137.7207  141.3908  163.5669 C.ar    1  UNL1        0.2223
     28 F         137.3342  142.4875  164.5145 F       1  UNL1       -0.1832
@<TRIPOS>BOND
     1     1     2    1
     2     2     3    2
     3     3     4    1
     4     4     5    1
     5     5     6    1
     6     4     7    1
     7     7     8   ar
     8     8     9   ar
     9     9    21    1
    10    21    22   ar
    11    22    23   ar
    12    23    24    1
    13    23    25   ar
    14    25    26   ar
    15    26    27   ar
    16    27    28    1
    17     9    10   ar
    18    10    11   ar
    19    11    12   ar
    20    12    13    1
    21    13    14    1
    22    14    15    1
    23    15    16    1
    24    16    17    1
    25    17    18    1
    26     6     2    1
    27    12     7   ar
    28    18    15    1
    29    15     4    1
    30    27    21   ar
    31     1    19    1
    32     1    20    1
@<TRIPOS>MOLECULE
*****
 28 32 0 0 0
SMALL
GASTEIGER

@<TRIPOS>ATOM
      1 N         143.3524  142.6507  167.6053 N.pl3   1  UNL1       -0.3133
      2 C         142.1979  142.1041  168.3915 C.2     1  UNL1        0.2770
      3 N         141.1308  141.1881  167.8697 N.2     1  UNL1       -0.2202
      4 C         140.1810  140.8954  168.9933 C.3     1  UNL1        0.1583
      5 C         140.6612  141.6305  170.2095 C.3     1  UNL1        0.2351
      6 O         141.9077  142.3776  169.8375 O.2     1  UNL1       -0.4478
      7 C         139.8242  140.2214  167.7016 C.ar    1  UNL1        0.0357
      8 C         140.6837  140.4217  166.4887 C.ar    1  UNL1        0.0008
      9 C         140.3269  139.7477  165.1970 C.ar    1  UNL1        0.0037
     10 C         139.1105  138.8734  165.1183 C.ar    1  UNL1        0.0032
     11 C         138.2511  138.6731  166.3312 C.ar    1  UNL1        0.0366
     12 C         138.6079  139.3471  167.6229 C.ar    1  UNL1        0.1364
     13 O         137.7485  139.1468  168.8358 O.3     1  UNL1       -0.4755
     14 C         138.1053  139.8208  170.1274 C.3     1  UNL1        0.2123
     15 C         139.3216  140.6951  170.2062 C.3     1  UNL1        0.1209
     16 C         139.2220  140.5070  169.8458 C.3     1  UNL1        0.1504
     17 O         139.3267  140.7047  170.2246 O.3     1  UNL1       -0.3532
     18 C         139.2220  140.5070  169.8458 C.3     1  UNL1        0.1504
     19 H         143.4584  142.4122  166.6560 H       1  UNL1        0.1466
     20 H         144.0042  143.2479  168.0385 H       1  UNL1        0.1466
     21 C         141.1863  139.9481  163.9841 C.ar    1  UNL1        0.0468
     22 C         142.0951  138.8490  163.5190 C.ar    1  UNL1        0.0168
     23 C         142.9546  139.0493  162.3061 C.ar    1  UNL1        0.0770
     24 CL        143.8633  137.9503  161.8411 Cl      1  UNL1       -0.0806
     25 C         142.9053  140.3486  161.5582 C.ar    1  UNL1        0.1126
     26 N         141.9965  141.4476  162.0232 N.ar    1  UNL1       -0.2156
     27 C         141.1370  141.2474  163.2362 C.ar    1  UNL1        0.2223
     28 F         140.2282  142.3464  163.7012 F       1  UNL1       -0.1832
@<TRIPOS>BOND
     1     1     2    1
     2     2     3    2
     3     3     4    1
     4     4     5    1
     5     5     6    1
     6     4     7    1
     7     7     8   ar
     8     8     9   ar
     9     9    21    1
    10    21    22   ar
    11    22    23   ar
    12    23    24    1
    13    23    25   ar
    14    25    26   ar
    15    26    27   ar
    16    27    28    1
    17     9    10   ar
    18    10    11   ar
    19    11    12   ar
    20    12    13    1
    21    13    14    1
    22    14    15    1
    23    15    16    1
    24    16    17    1
    25    17    18    1
    26     6     2    1
    27    12     7   ar
    28    18    15    1
    29    15     4    1
    30    27    21   ar
    31     1    19    1
    32     1    20    1
