@<TRIPOS>MOLECULE
*****
 35 38 0 0 0
SMALL
GASTEIGER

@<TRIPOS>ATOM
      1 C         142.8167  139.0381  160.7912 C.ar    1  UNL1        0.2036
      2 N         143.7696  139.7547  159.8811 N.ar    1  UNL1       -0.0556
      3 O         143.7271  139.0805  158.5418 O.2     1  UNL1       -0.3324
      4 C         142.7479  137.9471  158.6243 C.ar    1  UNL1        0.2600
      5 N         142.1853  137.9210  160.0145 N.ar    1  UNL1       -0.1870
      6 C         141.0925  141.1474  167.3647 C.2     1  UNL1        0.2297
      7 O         140.2312  142.1383  166.6393 O.2     1  UNL1       -0.2745
      8 N         141.9238  140.1679  166.5905 N.am    1  UNL1       -0.2586
      9 C         142.8287  139.1239  167.1748 C.3     1  UNL1        0.1029
     10 C         143.4603  138.3712  166.0415 C.3     1  UNL1        0.0495
     11 C         142.9458  138.9499  164.7568 C.ar    1  UNL1       -0.0067
     12 C         143.2193  138.6091  163.3218 C.ar    1  UNL1        0.0002
     13 C         142.5432  139.3789  162.2263 C.ar    1  UNL1        0.0389
     14 C         141.5936  140.4893  162.5656 C.ar    1  UNL1        0.0044
     15 C         141.3201  140.8300  164.0005 C.ar    1  UNL1        0.0147
     16 C         141.9962  140.0603  165.0961 C.ar    1  UNL1        0.0499
     17 C         141.1224  141.1360  168.8644 C.3     1  UNL1        0.0915
     18 C         139.9317  141.6132  169.6420 C.3     1  UNL1        0.0513
     19 O         140.3252  142.2897  172.1194 O.co2   1  UNL1       -0.5492
     20 C         140.0959  142.6755  170.6881 C.2     1  UNL1        0.0508
     21 O         140.0307  144.1238  170.3029 O.co2   1  UNL1       -0.5492
     22 C         142.3936  137.0054  157.5119 C.ar    1  UNL1        0.0560
     23 C         141.1921  137.2747  156.6553 C.ar    1  UNL1        0.0086
     24 C         140.8378  136.3329  155.5428 C.ar    1  UNL1        0.0715
     25 C         141.6850  135.1218  155.2870 C.ar    1  UNL1        0.0077
     26 C         142.8865  134.8524  156.1437 C.ar    1  UNL1        0.0715
     27 C         143.2408  135.7942  157.2561 C.ar    1  UNL1        0.0086
     28 C         139.6363  136.6023  154.6862 C.3     1  UNL1        0.4186
     29 F         138.4348  136.8716  153.8295 F       1  UNL1       -0.1659
     30 F         138.9217  137.1821  155.8707 F       1  UNL1       -0.1659
     31 F         140.3509  136.0225  153.5016 F       1  UNL1       -0.1659
     32 C         143.7337  133.6413  155.8879 C.3     1  UNL1        0.4186
     33 F         144.5809  132.4302  155.6321 F       1  UNL1       -0.1659
     34 F         144.4164  133.8398  157.2087 F       1  UNL1       -0.1659
     35 F         143.0511  133.4428  154.5670 F       1  UNL1       -0.1659
@<TRIPOS>UNITY_ATOM_ATTR
19 1
charge -1
@<TRIPOS>BOND
     1    19    20   ar
     2    20    21   ar
     3    20    18    1
     4    18    17    1
     5    17     6    1
     6     6     7    2
     7     6     8   am
     8     8     9    1
     9     9    10    1
    10    10    11    1
    11    11    12   ar
    12    12    13   ar
    13    13     1    1
    14     1     2   ar
    15     2     3   ar
    16     3     4   ar
    17     4    22    1
    18    22    23   ar
    19    23    24   ar
    20    24    28    1
    21    28    29    1
    22    28    30    1
    23    28    31    1
    24    24    25   ar
    25    25    26   ar
    26    26    32    1
    27    32    33    1
    28    32    34    1
    29    32    35    1
    30    26    27   ar
    31     4     5   ar
    32    13    14   ar
    33    14    15   ar
    34    15    16   ar
    35    16     8    1
    36    16    11   ar
    37     5     1   ar
    38    27    22   ar
@<TRIPOS>MOLECULE
*****
 35 38 0 0 0
SMALL
GASTEIGER

@<TRIPOS>ATOM
      1 C         142.7763  139.0172  160.8489 C.ar    1  UNL1        0.2036
      2 N         143.7979  139.6842  159.9763 N.ar    1  UNL1       -0.0556
      3 O         143.7465  139.0366  158.6243 O.2     1  UNL1       -0.3324
      4 C         142.6930  137.9694  158.6612 C.ar    1  UNL1        0.2600
      5 N         142.0934  137.9575  160.0361 N.ar    1  UNL1       -0.1870
      6 C         140.9431  141.0580  167.4144 C.2     1  UNL1        0.2297
      7 O         140.0013  141.9704  166.6862 O.2     1  UNL1       -0.2745
      8 N         141.8425  140.1380  166.6434 N.am    1  UNL1       -0.2586
      9 C         142.8309  139.1746  167.2308 C.3     1  UNL1        0.1029
     10 C         143.5107  138.4610  166.1001 C.3     1  UNL1        0.0495
     11 C         142.9426  138.9834  164.8139 C.ar    1  UNL1       -0.0067
     12 C         143.2308  138.6492  163.3803 C.ar    1  UNL1        0.0002
     13 C         142.4881  139.3514  162.2825 C.ar    1  UNL1        0.0389
     14 C         141.4570  140.3879  162.6184 C.ar    1  UNL1        0.0044
     15 C         141.1688  140.7221  164.0520 C.ar    1  UNL1        0.0147
     16 C         141.9115  140.0198  165.1497 C.ar    1  UNL1        0.0499
     17 C         140.9854  141.0656  168.9139 C.3     1  UNL1        0.0915
     18 C         139.8259  141.6106  169.6942 C.3     1  UNL1        0.0513
     19 O         140.4725  142.2335  172.1322 O.co2   1  UNL1       -0.5492
     20 C         140.0557  142.6486  170.7523 C.2     1  UNL1        0.0508
     21 O         139.8687  144.1017  170.4306 O.co2   1  UNL1       -0.5492
     22 C         142.3070  137.0718  157.5232 C.ar    1  UNL1        0.0560
     23 C         143.1331  135.8593  157.2108 C.ar    1  UNL1        0.0086
     24 C         142.7470  134.9617  156.0727 C.ar    1  UNL1        0.0715
     25 C         141.5349  135.2765  155.2470 C.ar    1  UNL1        0.0077
     26 C         140.7088  136.4890  155.5594 C.ar    1  UNL1        0.0715
     27 C         141.0949  137.3866  156.6975 C.ar    1  UNL1        0.0086
     28 C         143.5731  133.7493  155.7603 C.3     1  UNL1        0.4186
     29 F         144.3991  132.5368  155.4478 F       1  UNL1       -0.1659
     30 F         144.2914  133.9016  157.0682 F       1  UNL1       -0.1659
     31 F         142.8547  133.5969  154.4523 F       1  UNL1       -0.1659
     32 C         139.4967  136.8038  154.7338 C.3     1  UNL1        0.4186
     33 F         138.2847  137.1186  153.9082 F       1  UNL1       -0.1659
     34 F         138.9421  137.6238  155.8607 F       1  UNL1       -0.1659
     35 F         140.0514  135.9837  153.6068 F       1  UNL1       -0.1659
@<TRIPOS>UNITY_ATOM_ATTR
19 1
charge -1
@<TRIPOS>BOND
     1    19    20   ar
     2    20    21   ar
     3    20    18    1
     4    18    17    1
     5    17     6    1
     6     6     7    2
     7     6     8   am
     8     8     9    1
     9     9    10    1
    10    10    11    1
    11    11    12   ar
    12    12    13   ar
    13    13     1    1
    14     1     2   ar
    15     2     3   ar
    16     3     4   ar
    17     4    22    1
    18    22    23   ar
    19    23    24   ar
    20    24    28    1
    21    28    29    1
    22    28    30    1
    23    28    31    1
    24    24    25   ar
    25    25    26   ar
    26    26    32    1
    27    32    33    1
    28    32    34    1
    29    32    35    1
    30    26    27   ar
    31     4     5   ar
    32    13    14   ar
    33    14    15   ar
    34    15    16   ar
    35    16     8    1
    36    16    11   ar
    37     5     1   ar
    38    27    22   ar
@<TRIPOS>MOLECULE
*****
 35 38 0 0 0
SMALL
GASTEIGER

@<TRIPOS>ATOM
      1 C         142.9669  139.0665  160.6530 C.ar    1  UNL1        0.2036
      2 N         143.7767  139.8593  159.6704 N.ar    1  UNL1       -0.0556
      3 O         143.6526  139.2002  158.3287 O.2     1  UNL1       -0.3324
      4 C         142.7661  137.9999  158.4821 C.ar    1  UNL1        0.2600
      5 N         142.3423  137.9173  159.9187 N.ar    1  UNL1       -0.1870
      6 C         142.5596  139.9138  167.7063 C.2     1  UNL1        0.2297
      7 O         143.3062  138.6132  167.7365 O.2     1  UNL1       -0.2745
      8 N         142.1884  140.5352  166.3925 N.am    1  UNL1       -0.2586
      9 C         141.4461  141.8252  166.2058 C.3     1  UNL1        0.1029
     10 C         141.2932  142.0630  164.7327 C.3     1  UNL1        0.0495
     11 C         141.9410  140.9199  164.0090 C.ar    1  UNL1       -0.0067
     12 C         142.0985  140.6169  162.5484 C.ar    1  UNL1        0.0002
     13 C         142.8093  139.3696  162.1137 C.ar    1  UNL1        0.0389
     14 C         143.3626  138.4254  163.1395 C.ar    1  UNL1        0.0044
     15 C         143.2050  138.7284  164.6001 C.ar    1  UNL1        0.0147
     16 C         142.4942  139.9757  165.0348 C.ar    1  UNL1        0.0499
     17 C         142.1842  140.5930  168.9900 C.3     1  UNL1        0.0915
     18 C         141.5817  139.7985  170.1106 C.3     1  UNL1        0.0513
     19 O         140.6507  141.4945  171.8446 O.co2   1  UNL1       -0.5492
     20 C         140.4295  140.3577  170.8914 C.2     1  UNL1        0.0508
     21 O         139.0559  139.7801  170.7188 O.co2   1  UNL1       -0.5492
     22 C         142.3725  137.0492  157.3907 C.ar    1  UNL1        0.0560
     23 C         143.1986  135.8251  157.1284 C.ar    1  UNL1        0.0086
     24 C         142.8050  134.8744  156.0369 C.ar    1  UNL1        0.0715
     25 C         141.5852  135.1479  155.2078 C.ar    1  UNL1        0.0077
     26 C         140.7591  136.3721  155.4702 C.ar    1  UNL1        0.0715
     27 C         141.1527  137.3227  156.5616 C.ar    1  UNL1        0.0086
     28 C         143.6312  133.6502  155.7746 C.3     1  UNL1        0.4186
     29 F         144.4573  132.4260  155.5121 F       1  UNL1       -0.1659
     30 F         144.3351  133.8444  157.0848 F       1  UNL1       -0.1659
     31 F         142.9272  133.4560  154.4643 F       1  UNL1       -0.1659
     32 C         139.5393  136.6456  154.6411 C.3     1  UNL1        0.4186
     33 F         138.3196  136.9190  153.8121 F       1  UNL1       -0.1659
     34 F         138.7437  136.8840  155.8902 F       1  UNL1       -0.1659
     35 F         140.3348  136.4071  153.3920 F       1  UNL1       -0.1659
@<TRIPOS>UNITY_ATOM_ATTR
19 1
charge -1
@<TRIPOS>BOND
     1    19    20   ar
     2    20    21   ar
     3    20    18    1
     4    18    17    1
     5    17     6    1
     6     6     7    2
     7     6     8   am
     8     8     9    1
     9     9    10    1
    10    10    11    1
    11    11    12   ar
    12    12    13   ar
    13    13     1    1
    14     1     2   ar
    15     2     3   ar
    16     3     4   ar
    17     4    22    1
    18    22    23   ar
    19    23    24   ar
    20    24    28    1
    21    28    29    1
    22    28    30    1
    23    28    31    1
    24    24    25   ar
    25    25    26   ar
    26    26    32    1
    27    32    33    1
    28    32    34    1
    29    32    35    1
    30    26    27   ar
    31     4     5   ar
    32    13    14   ar
    33    14    15   ar
    34    15    16   ar
    35    16     8    1
    36    16    11   ar
    37     5     1   ar
    38    27    22   ar
@<TRIPOS>MOLECULE
*****
 35 38 0 0 0
SMALL
GASTEIGER

@<TRIPOS>ATOM
      1 C         140.7173  138.7387  160.9536 C.ar    1  UNL1        0.2036
      2 N         139.5585  138.7724  160.0018 N.ar    1  UNL1       -0.0556
      3 O         140.0713  138.4287  158.6348 O.2     1  UNL1       -0.3324
      4 C         141.5472  138.1827  158.7416 C.ar    1  UNL1        0.2600
      5 N         141.9464  138.3743  160.1748 N.ar    1  UNL1       -0.1870
      6 C         141.0891  140.2937  167.8873 C.2     1  UNL1        0.2297
      7 O         142.4874  140.7156  167.5456 O.2     1  UNL1       -0.2745
      8 N         140.1854  139.7560  166.8177 N.am    1  UNL1       -0.2586
      9 C         138.7700  139.2970  167.0078 C.3     1  UNL1        0.1029
     10 C         138.2483  138.8402  165.6778 C.3     1  UNL1        0.0495
     11 C         139.3411  139.0169  164.6656 C.ar    1  UNL1       -0.0067
     12 C         139.4008  138.7355  163.1935 C.ar    1  UNL1        0.0002
     13 C         140.6576  139.0201  162.4258 C.ar    1  UNL1        0.0389
     14 C         141.8548  139.5861  163.1304 C.ar    1  UNL1        0.0044
     15 C         141.7952  139.8675  164.6025 C.ar    1  UNL1        0.0147
     16 C         140.5383  139.5829  165.3701 C.ar    1  UNL1        0.0499
     17 C         140.5945  140.4096  169.2988 C.3     1  UNL1        0.0915
     18 C         139.6613  141.5212  169.6776 C.3     1  UNL1        0.0513
     19 O         139.8768  143.9907  170.4554 O.co2   1  UNL1       -0.5492
     20 C         140.0729  142.5260  170.7124 C.2     1  UNL1        0.0508
     21 O         140.6805  142.0660  172.0044 O.co2   1  UNL1       -0.5492
     22 C         142.4629  137.8104  157.6135 C.ar    1  UNL1        0.0560
     23 C         142.6425  136.3694  157.2376 C.ar    1  UNL1        0.0086
     24 C         143.5583  135.9972  156.1095 C.ar    1  UNL1        0.0715
     25 C         144.2944  137.0659  155.3572 C.ar    1  UNL1        0.0077
     26 C         144.1149  138.5069  155.7330 C.ar    1  UNL1        0.0715
     27 C         143.1991  138.8791  156.8612 C.ar    1  UNL1        0.0086
     28 C         143.7379  134.5562  155.7336 C.3     1  UNL1        0.4186
     29 F         143.9174  133.1152  155.3576 F       1  UNL1       -0.1659
     30 F         144.2527  134.2609  157.1111 F       1  UNL1       -0.1659
     31 F         143.2229  134.8514  154.3559 F       1  UNL1       -0.1659
     32 C         144.8510  139.5756  154.9808 C.3     1  UNL1        0.4186
     33 F         145.5872  140.6442  154.2285 F       1  UNL1       -0.1659
     34 F         144.2642  139.0744  153.6945 F       1  UNL1       -0.1659
     35 F         145.4379  140.0768  156.2670 F       1  UNL1       -0.1659
@<TRIPOS>UNITY_ATOM_ATTR
19 1
charge -1
@<TRIPOS>BOND
     1    19    20   ar
     2    20    21   ar
     3    20    18    1
     4    18    17    1
     5    17     6    1
     6     6     7    2
     7     6     8   am
     8     8     9    1
     9     9    10    1
    10    10    11    1
    11    11    12   ar
    12    12    13   ar
    13    13     1    1
    14     1     2   ar
    15     2     3   ar
    16     3     4   ar
    17     4    22    1
    18    22    23   ar
    19    23    24   ar
    20    24    28    1
    21    28    29    1
    22    28    30    1
    23    28    31    1
    24    24    25   ar
    25    25    26   ar
    26    26    32    1
    27    32    33    1
    28    32    34    1
    29    32    35    1
    30    26    27   ar
    31     4     5   ar
    32    13    14   ar
    33    14    15   ar
    34    15    16   ar
    35    16     8    1
    36    16    11   ar
    37     5     1   ar
    38    27    22   ar
@<TRIPOS>MOLECULE
*****
 35 38 0 0 0
SMALL
GASTEIGER

@<TRIPOS>ATOM
      1 C         140.6540  138.7599  161.0010 C.ar    1  UNL1        0.2036
      2 N         139.4952  138.7658  160.0487 N.ar    1  UNL1       -0.0556
      3 O         140.0166  138.4336  158.6821 O.2     1  UNL1       -0.3324
      4 C         141.4978  138.2224  158.7898 C.ar    1  UNL1        0.2600
      5 N         141.8917  138.4240  160.2230 N.ar    1  UNL1       -0.1870
      6 C         140.9741  140.3557  167.9280 C.2     1  UNL1        0.2297
      7 O         142.3375  140.8711  167.5741 O.2     1  UNL1       -0.2745
      8 N         140.1007  139.7546  166.8670 N.am    1  UNL1       -0.2586
      9 C         138.7216  139.2005  167.0697 C.3     1  UNL1        0.1029
     10 C         138.2216  138.7055  165.7449 C.3     1  UNL1        0.0495
     11 C         139.2917  138.9536  164.7235 C.ar    1  UNL1       -0.0067
     12 C         139.3587  138.6729  163.2515 C.ar    1  UNL1        0.0002
     13 C         140.5870  139.0406  162.4731 C.ar    1  UNL1        0.0389
     14 C         141.7483  139.6890  163.1666 C.ar    1  UNL1        0.0044
     15 C         141.6814  139.9697  164.6385 C.ar    1  UNL1        0.0147
     16 C         140.4531  139.6020  165.4170 C.ar    1  UNL1        0.0499
     17 C         140.4840  140.4414  169.3432 C.3     1  UNL1        0.0915
     18 C         139.5799  141.5645  169.7571 C.3     1  UNL1        0.0513
     19 O         140.6291  142.1865  172.0511 O.co2   1  UNL1       -0.5492
     20 C         140.0678  142.6025  170.7237 C.2     1  UNL1        0.0508
     21 O         139.9942  144.0566  170.3630 O.co2   1  UNL1       -0.5492
     22 C         142.4226  137.8711  157.6623 C.ar    1  UNL1        0.0560
     23 C         143.1426  138.9558  156.9172 C.ar    1  UNL1        0.0086
     24 C         144.0675  138.6046  155.7897 C.ar    1  UNL1        0.0715
     25 C         144.2723  137.1687  155.4072 C.ar    1  UNL1        0.0077
     26 C         143.5523  136.0840  156.1523 C.ar    1  UNL1        0.0715
     27 C         142.6275  136.4352  157.2798 C.ar    1  UNL1        0.0086
     28 C         144.7874  139.6893  155.0447 C.3     1  UNL1        0.4186
     29 F         145.5075  140.7740  154.2998 F       1  UNL1       -0.1659
     30 F         144.1074  139.2690  153.7755 F       1  UNL1       -0.1659
     31 F         145.4675  140.1096  156.3139 F       1  UNL1       -0.1659
     32 C         143.7571  134.6481  155.7698 C.3     1  UNL1        0.4186
     33 F         143.9620  133.2123  155.3873 F       1  UNL1       -0.1659
     34 F         143.3031  134.9553  154.3735 F       1  UNL1       -0.1659
     35 F         144.2112  134.3410  157.1660 F       1  UNL1       -0.1659
@<TRIPOS>UNITY_ATOM_ATTR
19 1
charge -1
@<TRIPOS>BOND
     1    19    20   ar
     2    20    21   ar
     3    20    18    1
     4    18    17    1
     5    17     6    1
     6     6     7    2
     7     6     8   am
     8     8     9    1
     9     9    10    1
    10    10    11    1
    11    11    12   ar
    12    12    13   ar
    13    13     1    1
    14     1     2   ar
    15     2     3   ar
    16     3     4   ar
    17     4    22    1
    18    22    23   ar
    19    23    24   ar
    20    24    28    1
    21    28    29    1
    22    28    30    1
    23    28    31    1
    24    24    25   ar
    25    25    26   ar
    26    26    32    1
    27    32    33    1
    28    32    34    1
    29    32    35    1
    30    26    27   ar
    31     4     5   ar
    32    13    14   ar
    33    14    15   ar
    34    15    16   ar
    35    16     8    1
    36    16    11   ar
    37     5     1   ar
    38    27    22   ar
@<TRIPOS>MOLECULE
*****
 35 38 0 0 0
SMALL
GASTEIGER

@<TRIPOS>ATOM
      1 C         142.9668  138.3069  158.1279 C.ar    1  UNL1        0.2036
      2 N         143.6016  138.5253  156.7866 N.ar    1  UNL1       -0.0556
      3 O         143.7132  137.1942  156.1043 O.2     1  UNL1       -0.3324
      4 C         143.1474  136.1530  157.0241 C.ar    1  UNL1        0.2600
      5 N         142.6861  136.8408  158.2747 N.ar    1  UNL1       -0.1870
      6 C         141.9988  143.7406  162.6190 C.2     1  UNL1        0.2297
      7 O         143.0242  144.4159  161.7574 O.2     1  UNL1       -0.2745
      8 N         141.5640  142.3390  162.3088 N.am    1  UNL1       -0.2586
      9 C         140.5535  141.5391  163.0763 C.3     1  UNL1        0.1029
     10 C         140.4283  140.1969  162.4184 C.3     1  UNL1        0.0495
     11 C         141.3614  140.1673  161.2443 C.ar    1  UNL1       -0.0067
     12 C         141.6625  139.1059  160.2281 C.ar    1  UNL1        0.0002
     13 C         142.6656  139.3684  159.1442 C.ar    1  UNL1        0.0389
     14 C         143.3675  140.6923  159.0764 C.ar    1  UNL1        0.0044
     15 C         143.0663  141.7537  160.0926 C.ar    1  UNL1        0.0147
     16 C         142.0633  141.4912  161.1765 C.ar    1  UNL1        0.0499
     17 C         141.4082  144.4671  163.7910 C.3     1  UNL1        0.0915
     18 C         140.0479  145.0894  163.6797 C.3     1  UNL1        0.0513
     19 O         138.6528  144.3542  161.6149 O.co2   1  UNL1       -0.5492
     20 C         139.4692  145.3904  162.3289 C.2     1  UNL1        0.0508
     21 O         139.7069  146.7276  161.6922 O.co2   1  UNL1       -0.5492
     22 C         143.0585  134.6823  156.7426 C.ar    1  UNL1        0.0560
     23 C         143.9497  133.7234  157.4748 C.ar    1  UNL1        0.0086
     24 C         143.8608  132.2527  157.1933 C.ar    1  UNL1        0.0715
     25 C         142.8807  131.7410  156.1795 C.ar    1  UNL1        0.0077
     26 C         141.9895  132.7000  155.4473 C.ar    1  UNL1        0.0715
     27 C         142.0784  134.1706  155.7288 C.ar    1  UNL1        0.0086
     28 C         144.7520  131.2938  157.9255 C.3     1  UNL1        0.4186
     29 F         145.6432  130.3347  158.6577 F       1  UNL1       -0.1659
     30 F         145.7531  132.3895  158.1423 F       1  UNL1       -0.1659
     31 F         143.7509  130.1979  157.7086 F       1  UNL1       -0.1659
     32 C         141.0094  132.1883  154.4336 C.3     1  UNL1        0.4186
     33 F         140.0294  131.6766  153.4200 F       1  UNL1       -0.1659
     34 F         141.0445  130.8362  155.0822 F       1  UNL1       -0.1659
     35 F         140.9743  133.5404  153.7851 F       1  UNL1       -0.1659
@<TRIPOS>UNITY_ATOM_ATTR
19 1
charge -1
@<TRIPOS>BOND
     1    19    20   ar
     2    20    21   ar
     3    20    18    1
     4    18    17    1
     5    17     6    1
     6     6     7    2
     7     6     8   am
     8     8     9    1
     9     9    10    1
    10    10    11    1
    11    11    12   ar
    12    12    13   ar
    13    13     1    1
    14     1     2   ar
    15     2     3   ar
    16     3     4   ar
    17     4    22    1
    18    22    23   ar
    19    23    24   ar
    20    24    28    1
    21    28    29    1
    22    28    30    1
    23    28    31    1
    24    24    25   ar
    25    25    26   ar
    26    26    32    1
    27    32    33    1
    28    32    34    1
    29    32    35    1
    30    26    27   ar
    31     4     5   ar
    32    13    14   ar
    33    14    15   ar
    34    15    16   ar
    35    16     8    1
    36    16    11   ar
    37     5     1   ar
    38    27    22   ar
@<TRIPOS>MOLECULE
*****
 35 38 0 0 0
SMALL
GASTEIGER

@<TRIPOS>ATOM
      1 C         141.2716  143.8228  160.9670 C.ar    1  UNL1        0.2036
      2 N         142.5446  144.2941  160.3287 N.ar    1  UNL1       -0.0556
      3 O         142.2117  144.8211  158.9644 O.2     1  UNL1       -0.3324
      4 C         140.7328  144.6755  158.7594 C.ar    1  UNL1        0.2600
      5 N         140.1519  144.0585  159.9971 N.ar    1  UNL1       -0.1870
      6 C         140.0424  140.7160  167.2494 C.2     1  UNL1        0.2297
      7 O         138.7688  140.2742  166.5918 O.2     1  UNL1       -0.2745
      8 N         141.0292  141.5507  166.4882 N.am    1  UNL1       -0.2586
      9 C         142.3382  142.0641  167.0107 C.3     1  UNL1        0.1029
     10 C         142.9982  142.8493  165.9162 C.3     1  UNL1        0.0495
     11 C         142.0972  142.8211  164.7173 C.ar    1  UNL1       -0.0067
     12 C         142.2277  143.4225  163.3494 C.ar    1  UNL1        0.0002
     13 C         141.1412  143.2213  162.3350 C.ar    1  UNL1        0.0389
     14 C         139.9243  142.4188  162.6885 C.ar    1  UNL1        0.0044
     15 C         139.7938  141.8174  164.0564 C.ar    1  UNL1        0.0147
     16 C         140.8803  142.0185  165.0708 C.ar    1  UNL1        0.0499
     17 C         140.3293  140.3230  168.6684 C.3     1  UNL1        0.0915
     18 C         139.5328  140.9236  169.7886 C.3     1  UNL1        0.0513
     19 O         139.9849  143.4816  169.7371 O.co2   1  UNL1       -0.5492
     20 C         140.0154  142.1714  170.4669 C.2     1  UNL1        0.0508
     21 O         140.5285  142.1090  171.8750 O.co2   1  UNL1       -0.5492
     22 C         139.9691  145.0764  157.5322 C.ar    1  UNL1        0.0560
     23 C         139.8267  146.5271  157.1782 C.ar    1  UNL1        0.0086
     24 C         139.0629  146.9281  155.9510 C.ar    1  UNL1        0.0715
     25 C         138.4417  145.8784  155.0779 C.ar    1  UNL1        0.0077
     26 C         138.5842  144.4278  155.4320 C.ar    1  UNL1        0.0715
     27 C         139.3479  144.0268  156.6591 C.ar    1  UNL1        0.0086
     28 C         138.9205  148.3787  155.5970 C.3     1  UNL1        0.4186
     29 F         138.7780  149.8294  155.2431 F       1  UNL1       -0.1659
     30 F         139.2840  148.0675  154.1754 F       1  UNL1       -0.1659
     31 F         138.5569  148.6899  157.0187 F       1  UNL1       -0.1659
     32 C         137.9629  143.3781  154.5589 C.3     1  UNL1        0.4186
     33 F         137.3417  142.3285  153.6858 F       1  UNL1       -0.1659
     34 F         136.6183  144.0148  154.7502 F       1  UNL1       -0.1659
     35 F         139.3076  142.7414  154.3675 F       1  UNL1       -0.1659
@<TRIPOS>UNITY_ATOM_ATTR
19 1
charge -1
@<TRIPOS>BOND
     1    19    20   ar
     2    20    21   ar
     3    20    18    1
     4    18    17    1
     5    17     6    1
     6     6     7    2
     7     6     8   am
     8     8     9    1
     9     9    10    1
    10    10    11    1
    11    11    12   ar
    12    12    13   ar
    13    13     1    1
    14     1     2   ar
    15     2     3   ar
    16     3     4   ar
    17     4    22    1
    18    22    23   ar
    19    23    24   ar
    20    24    28    1
    21    28    29    1
    22    28    30    1
    23    28    31    1
    24    24    25   ar
    25    25    26   ar
    26    26    32    1
    27    32    33    1
    28    32    34    1
    29    32    35    1
    30    26    27   ar
    31     4     5   ar
    32    13    14   ar
    33    14    15   ar
    34    15    16   ar
    35    16     8    1
    36    16    11   ar
    37     5     1   ar
    38    27    22   ar
@<TRIPOS>MOLECULE
*****
 35 38 0 0 0
SMALL
GASTEIGER

@<TRIPOS>ATOM
      1 C         140.3481  144.3819  162.5127 C.ar    1  UNL1        0.2036
      2 N         139.4760  145.5948  162.3774 N.ar    1  UNL1       -0.0556
      3 O         139.5310  146.0481  160.9486 O.2     1  UNL1       -0.3324
      4 C         140.4371  145.1154  160.2009 C.ar    1  UNL1        0.2600
      5 N         140.9421  144.0856  161.1676 N.ar    1  UNL1       -0.1870
      6 C         140.7908  140.5476  168.4906 C.2     1  UNL1        0.2297
      7 O         139.3123  140.3855  168.2965 O.2     1  UNL1       -0.2745
      8 N         141.5928  141.3488  167.5083 N.am    1  UNL1       -0.2586
      9 C         143.0708  141.5969  167.5711 C.3     1  UNL1        0.1029
     10 C         143.4491  142.4440  166.3925 C.3     1  UNL1        0.0495
     11 C         142.2049  142.7195  165.6012 C.ar    1  UNL1       -0.0067
     12 C         141.9684  143.4992  164.3419 C.ar    1  UNL1        0.0002
     13 C         140.5846  143.6021  163.7722 C.ar    1  UNL1        0.0389
     14 C         139.4374  142.9252  164.4618 C.ar    1  UNL1        0.0044
     15 C         139.6739  142.1455  165.7212 C.ar    1  UNL1        0.0147
     16 C         141.0576  142.0426  166.2909 C.ar    1  UNL1        0.0499
     17 C         141.4673  139.9084  169.6670 C.3     1  UNL1        0.0915
     18 C         142.2783  140.7451  170.6116 C.3     1  UNL1        0.0513
     19 O         142.4083  143.3360  170.7540 O.co2   1  UNL1       -0.5492
     20 C         141.7323  142.0473  171.1177 C.2     1  UNL1        0.0508
     21 O         140.5103  142.0607  171.9875 O.co2   1  UNL1       -0.5492
     22 C         140.7784  145.1979  158.7426 C.ar    1  UNL1        0.0560
     23 C         141.8251  144.2921  158.1648 C.ar    1  UNL1        0.0086
     24 C         142.1663  144.3747  156.7065 C.ar    1  UNL1        0.0715
     25 C         141.4608  145.3631  155.8259 C.ar    1  UNL1        0.0077
     26 C         140.4141  146.2690  156.4037 C.ar    1  UNL1        0.0715
     27 C         140.0729  146.1864  157.8620 C.ar    1  UNL1        0.0086
     28 C         143.2130  143.4688  156.1287 C.3     1  UNL1        0.4186
     29 F         144.2597  142.5629  155.5510 F       1  UNL1       -0.1659
     30 F         142.7537  143.8206  154.7448 F       1  UNL1       -0.1659
     31 F         143.6723  143.1169  157.5127 F       1  UNL1       -0.1659
     32 C         139.7087  147.2574  155.5232 C.3     1  UNL1        0.4186
     33 F         139.0033  148.2458  154.6427 F       1  UNL1       -0.1659
     34 F         138.8215  147.6450  156.6690 F       1  UNL1       -0.1659
     35 F         140.5958  146.8698  154.3774 F       1  UNL1       -0.1659
@<TRIPOS>UNITY_ATOM_ATTR
19 1
charge -1
@<TRIPOS>BOND
     1    19    20   ar
     2    20    21   ar
     3    20    18    1
     4    18    17    1
     5    17     6    1
     6     6     7    2
     7     6     8   am
     8     8     9    1
     9     9    10    1
    10    10    11    1
    11    11    12   ar
    12    12    13   ar
    13    13     1    1
    14     1     2   ar
    15     2     3   ar
    16     3     4   ar
    17     4    22    1
    18    22    23   ar
    19    23    24   ar
    20    24    28    1
    21    28    29    1
    22    28    30    1
    23    28    31    1
    24    24    25   ar
    25    25    26   ar
    26    26    32    1
    27    32    33    1
    28    32    34    1
    29    32    35    1
    30    26    27   ar
    31     4     5   ar
    32    13    14   ar
    33    14    15   ar
    34    15    16   ar
    35    16     8    1
    36    16    11   ar
    37     5     1   ar
    38    27    22   ar
@<TRIPOS>MOLECULE
*****
 35 38 0 0 0
SMALL
GASTEIGER

@<TRIPOS>ATOM
      1 C         141.7107  143.8861  160.4265 C.ar    1  UNL1        0.2036
      2 N         142.8363  143.8179  159.4374 N.ar    1  UNL1       -0.0556
      3 O         142.3083  144.2557  158.1034 O.2     1  UNL1       -0.3324
      4 C         140.8563  144.5944  158.2681 C.ar    1  UNL1        0.2600
      5 N         140.4870  144.3660  159.7039 N.ar    1  UNL1       -0.1870
      6 C         141.4239  142.1094  167.3108 C.2     1  UNL1        0.2297
      7 O         139.9629  141.9213  167.0281 O.2     1  UNL1       -0.2745
      8 N         142.3495  142.5482  166.2150 N.am    1  UNL1       -0.2586
      9 C         143.8261  142.7768  166.3470 C.3     1  UNL1        0.1029
     10 C         144.3502  143.2052  165.0084 C.3     1  UNL1        0.0495
     11 C         143.1975  143.2414  164.0492 C.ar    1  UNL1       -0.0067
     12 C         143.1141  143.5917  162.5931 C.ar    1  UNL1        0.0002
     13 C         141.7942  143.5358  161.8827 C.ar    1  UNL1        0.0389
     14 C         140.5577  143.1297  162.6285 C.ar    1  UNL1        0.0044
     15 C         140.6411  142.7795  164.0846 C.ar    1  UNL1        0.0147
     16 C         141.9610  142.8353  164.7950 C.ar    1  UNL1        0.0499
     17 C         141.9593  141.8587  168.6895 C.3     1  UNL1        0.0915
     18 C         141.8009  142.9009  169.7566 C.3     1  UNL1        0.0513
     19 O         140.0669  144.8073  170.0864 O.co2   1  UNL1       -0.5492
     20 C         140.4305  143.3542  170.1646 C.2     1  UNL1        0.0508
     21 O         139.4237  142.3542  170.6508 O.co2   1  UNL1       -0.5492
     22 C         139.9353  145.0769  157.1869 C.ar    1  UNL1        0.0560
     23 C         139.0323  144.1077  156.4832 C.ar    1  UNL1        0.0086
     24 C         138.1114  144.5901  155.4019 C.ar    1  UNL1        0.0715
     25 C         138.0934  146.0418  155.0245 C.ar    1  UNL1        0.0077
     26 C         138.9964  147.0109  155.7282 C.ar    1  UNL1        0.0715
     27 C         139.9174  146.5285  156.8094 C.ar    1  UNL1        0.0086
     28 C         137.2084  143.6209  154.6982 C.3     1  UNL1        0.4186
     29 F         136.3054  142.6516  153.9945 F       1  UNL1       -0.1659
     30 F         136.6364  144.7441  153.8851 F       1  UNL1       -0.1659
     31 F         137.7803  142.4976  155.5114 F       1  UNL1       -0.1659
     32 C         138.9784  148.4626  155.3507 C.3     1  UNL1        0.4186
     33 F         138.9605  149.9141  154.9732 F       1  UNL1       -0.1659
     34 F         139.3488  148.1010  153.9428 F       1  UNL1       -0.1659
     35 F         138.6081  148.8241  156.7586 F       1  UNL1       -0.1659
@<TRIPOS>UNITY_ATOM_ATTR
19 1
charge -1
@<TRIPOS>BOND
     1    19    20   ar
     2    20    21   ar
     3    20    18    1
     4    18    17    1
     5    17     6    1
     6     6     7    2
     7     6     8   am
     8     8     9    1
     9     9    10    1
    10    10    11    1
    11    11    12   ar
    12    12    13   ar
    13    13     1    1
    14     1     2   ar
    15     2     3   ar
    16     3     4   ar
    17     4    22    1
    18    22    23   ar
    19    23    24   ar
    20    24    28    1
    21    28    29    1
    22    28    30    1
    23    28    31    1
    24    24    25   ar
    25    25    26   ar
    26    26    32    1
    27    32    33    1
    28    32    34    1
    29    32    35    1
    30    26    27   ar
    31     4     5   ar
    32    13    14   ar
    33    14    15   ar
    34    15    16   ar
    35    16     8    1
    36    16    11   ar
    37     5     1   ar
    38    27    22   ar
