@<TRIPOS>MOLECULE
*****
 33 35 0 0 0
SMALL
GASTEIGER

@<TRIPOS>ATOM
      1 N         142.8297  142.5300  164.1706 N.am    1  UNL1       -0.3005
      2 C         142.9513  143.9565  163.7232 C.2     1  UNL1        0.2474
      3 O         143.8575  144.8986  164.4589 O.2     1  UNL1       -0.2701
      4 H         142.2349  141.9117  163.6877 H       1  UNL1        0.1498
      5 C         142.1666  144.4409  162.5402 C.ar    1  UNL1        0.0727
      6 C         140.9783  145.3337  162.7429 C.ar    1  UNL1        0.0109
      7 C         140.1937  145.8181  161.5598 C.ar    1  UNL1        0.0579
      8 C         140.5973  145.4098  160.1740 C.ar    1  UNL1        0.2249
      9 N         141.7856  144.5172  159.9713 N.ar    1  UNL1       -0.2100
     10 C         142.5703  144.0327  161.1544 C.ar    1  UNL1        0.1065
     11 O         139.8127  145.8943  158.9910 O.3     1  UNL1       -0.4599
     12 C         140.4802  146.0352  157.6550 C.3     1  UNL1        0.2159
     13 C         139.6546  146.0591  156.4029 C.3     1  UNL1        0.1505
     14 C         139.2880  147.3694  155.7712 C.3     1  UNL1        0.4014
     15 F         138.9214  148.6795  155.1395 F       1  UNL1       -0.1699
     16 F         138.8453  147.8894  157.1067 F       1  UNL1       -0.1699
     17 F         139.7307  146.8493  154.4358 F       1  UNL1       -0.1699
     18 C         143.6143  142.0455  165.3537 C.3     1  UNL1        0.0944
     19 C         142.9332  141.2592  166.4343 C.3     1  UNL1        0.0476
     20 C         141.0063  142.3916  167.7591 C.ar    1  UNL1       -0.0009
     21 C         140.5112  143.0857  168.9932 C.ar    1  UNL1       -0.0002
     22 C         141.4478  143.3417  170.1366 C.ar    1  UNL1       -0.0000
     23 C         142.8795  142.9035  170.0459 C.ar    1  UNL1       -0.0003
     24 C         143.3746  142.2093  168.8118 C.ar    1  UNL1       -0.0042
     25 C         142.4380  141.9534  167.6684 C.ar    1  UNL1       -0.0204
     26 C         138.1967  141.6237  164.3290 C.ar    1  UNL1        0.3201
     27 N         138.5110  140.5256  165.3012 N.ar    1  UNL1       -0.1927
     28 C         139.4476  140.7816  166.4446 C.ar    1  UNL1        0.1051
     29 C         140.0698  142.1356  166.6157 C.ar    1  UNL1        0.0383
     30 C         139.7554  143.2337  165.6435 C.ar    1  UNL1        0.1051
     31 N         138.8189  142.9777  164.5001 N.ar    1  UNL1       -0.1927
     32 C         137.8013  141.1914  161.7978 C.3     1  UNL1        0.2559
     33 O         137.2601  141.3677  163.1856 O.3     1  UNL1       -0.4426
@<TRIPOS>BOND
     1    32    33    1
     2    33    26    1
     3    26    27   ar
     4    27    28   ar
     5    28    29   ar
     6    29    20    1
     7    20    21   ar
     8    21    22   ar
     9    22    23   ar
    10    23    24   ar
    11    24    25   ar
    12    25    19    1
    13    19    18    1
    14    18     1    1
    15     1     2   am
    16     2     3    2
    17     2     5    1
    18     5     6   ar
    19     6     7   ar
    20     7     8   ar
    21     8    11    1
    22    11    12    1
    23    12    13    1
    24    13    14    1
    25    14    15    1
    26    14    16    1
    27    14    17    1
    28     8     9   ar
    29     9    10   ar
    30    29    30   ar
    31    30    31   ar
    32    31    26   ar
    33    25    20   ar
    34    10     5   ar
    35     1     4    1
@<TRIPOS>MOLECULE
*****
 33 35 0 0 0
SMALL
GASTEIGER

@<TRIPOS>ATOM
      1 N         139.9400  137.9978  163.9333 N.am    1  UNL1       -0.3005
      2 C         139.4360  138.1303  162.5268 C.2     1  UNL1        0.2474
      3 O         137.9633  138.2439  162.2654 O.2     1  UNL1       -0.2701
      4 H         140.9066  137.9232  164.1048 H       1  UNL1        0.1498
      5 C         140.4046  138.1490  161.3817 C.ar    1  UNL1        0.0727
      6 C         139.9462  138.5752  160.0184 C.ar    1  UNL1        0.0109
      7 C         140.9148  138.5940  158.8733 C.ar    1  UNL1        0.0579
      8 C         142.3419  138.1866  159.0913 C.ar    1  UNL1        0.2249
      9 N         142.8003  137.7605  160.4544 N.ar    1  UNL1       -0.2100
     10 C         141.8317  137.7417  161.5997 C.ar    1  UNL1        0.1065
     11 O         143.3105  138.2054  157.9462 O.3     1  UNL1       -0.4599
     12 C         142.9860  137.4742  156.6773 C.3     1  UNL1        0.2159
     13 C         142.4802  136.0631  156.7331 C.3     1  UNL1        0.1505
     14 C         143.4096  134.9213  156.4458 C.3     1  UNL1        0.4014
     15 F         144.3389  133.7795  156.1584 F       1  UNL1       -0.1699
     16 F         143.2576  134.4419  157.8589 F       1  UNL1       -0.1699
     17 F         143.5616  135.4007  155.0326 F       1  UNL1       -0.1699
     18 C         138.9714  137.9790  165.0785 C.3     1  UNL1        0.0944
     19 C         138.3117  139.2504  165.5238 C.3     1  UNL1        0.0476
     20 C         139.4929  141.5476  165.8031 C.ar    1  UNL1       -0.0009
     21 C         140.2470  142.5255  166.6545 C.ar    1  UNL1       -0.0002
     22 C         140.5741  142.1843  168.0780 C.ar    1  UNL1       -0.0000
     23 C         140.1471  140.8651  168.6502 C.ar    1  UNL1       -0.0003
     24 C         139.3930  139.8872  167.7988 C.ar    1  UNL1       -0.0042
     25 C         139.0659  140.2284  166.3752 C.ar    1  UNL1       -0.0204
     26 C         138.5115  142.5714  161.5324 C.ar    1  UNL1        0.3201
     27 N         139.8488  141.9846  161.8747 N.ar    1  UNL1       -0.1927
     28 C         140.1759  141.6433  163.2982 C.ar    1  UNL1        0.1051
     29 C         139.1657  141.8889  164.3795 C.ar    1  UNL1        0.0383
     30 C         137.8284  142.4756  164.0372 C.ar    1  UNL1        0.1051
     31 N         137.5013  142.8169  162.6136 N.ar    1  UNL1       -0.1927
     32 C         138.4600  141.9211  159.0175 C.3     1  UNL1        0.2559
     33 O         138.1844  142.9126  160.1088 O.3     1  UNL1       -0.4426
@<TRIPOS>BOND
     1    32    33    1
     2    33    26    1
     3    26    27   ar
     4    27    28   ar
     5    28    29   ar
     6    29    20    1
     7    20    21   ar
     8    21    22   ar
     9    22    23   ar
    10    23    24   ar
    11    24    25   ar
    12    25    19    1
    13    19    18    1
    14    18     1    1
    15     1     2   am
    16     2     3    2
    17     2     5    1
    18     5     6   ar
    19     6     7   ar
    20     7     8   ar
    21     8    11    1
    22    11    12    1
    23    12    13    1
    24    13    14    1
    25    14    15    1
    26    14    16    1
    27    14    17    1
    28     8     9   ar
    29     9    10   ar
    30    29    30   ar
    31    30    31   ar
    32    31    26   ar
    33    25    20   ar
    34    10     5   ar
    35     1     4    1
@<TRIPOS>MOLECULE
*****
 33 35 0 0 0
SMALL
GASTEIGER

@<TRIPOS>ATOM
      1 N         140.3114  143.8526  164.1851 N.am    1  UNL1       -0.3005
      2 C         139.1692  143.9826  163.2217 C.2     1  UNL1        0.2474
      3 O         137.7562  143.8896  163.7166 O.2     1  UNL1       -0.2701
      4 H         141.2388  143.9137  163.8603 H       1  UNL1        0.1498
      5 C         139.4399  144.2055  161.7633 C.ar    1  UNL1        0.0727
      6 C         139.2623  143.0805  160.7870 C.ar    1  UNL1        0.0109
      7 C         139.5330  143.3034  159.3286 C.ar    1  UNL1        0.0579
      8 C         139.9813  144.6512  158.8463 C.ar    1  UNL1        0.2249
      9 N         140.1588  145.7761  159.8226 N.ar    1  UNL1       -0.2100
     10 C         139.8881  145.5532  161.2811 C.ar    1  UNL1        0.1065
     11 O         140.2520  144.8741  157.3879 O.3     1  UNL1       -0.4599
     12 C         140.2891  146.2686  156.8366 C.3     1  UNL1        0.2159
     13 C         139.3146  146.6810  155.7734 C.3     1  UNL1        0.1505
     14 C         138.9054  148.1186  155.6478 C.3     1  UNL1        0.4014
     15 F         138.4962  149.5562  155.5222 F       1  UNL1       -0.1699
     16 F         138.6109  148.1632  157.1179 F       1  UNL1       -0.1699
     17 F         139.1999  148.0740  154.1777 F       1  UNL1       -0.1699
     18 C         140.0408  143.6297  165.6436 C.3     1  UNL1        0.0944
     19 C         140.8985  142.6827  166.4294 C.3     1  UNL1        0.0476
     20 C         139.8061  140.6475  167.6188 C.ar    1  UNL1       -0.0009
     21 C         139.2684  140.0049  168.8630 C.ar    1  UNL1       -0.0002
     22 C         139.2853  140.7549  170.1619 C.ar    1  UNL1       -0.0000
     23 C         139.8399  142.1475  170.2167 C.ar    1  UNL1       -0.0003
     24 C         140.3776  142.7901  168.9725 C.ar    1  UNL1       -0.0042
     25 C         140.3607  142.0401  167.6736 C.ar    1  UNL1       -0.0204
     26 C         139.7553  138.3974  163.7221 C.ar    1  UNL1        0.3201
     27 N         138.5484  139.1761  164.1543 N.ar    1  UNL1       -0.1927
     28 C         138.5653  139.9262  165.4532 C.ar    1  UNL1        0.1051
     29 C         139.7892  139.8975  166.3199 C.ar    1  UNL1        0.0383
     30 C         140.9961  139.1188  165.8877 C.ar    1  UNL1        0.1051
     31 N         140.9792  138.3688  164.5888 N.ar    1  UNL1       -0.1927
     32 C         139.0052  138.2100  161.2417 C.3     1  UNL1        0.2559
     33 O         139.7384  137.6474  162.4232 O.3     1  UNL1       -0.4426
@<TRIPOS>BOND
     1    32    33    1
     2    33    26    1
     3    26    27   ar
     4    27    28   ar
     5    28    29   ar
     6    29    20    1
     7    20    21   ar
     8    21    22   ar
     9    22    23   ar
    10    23    24   ar
    11    24    25   ar
    12    25    19    1
    13    19    18    1
    14    18     1    1
    15     1     2   am
    16     2     3    2
    17     2     5    1
    18     5     6   ar
    19     6     7   ar
    20     7     8   ar
    21     8    11    1
    22    11    12    1
    23    12    13    1
    24    13    14    1
    25    14    15    1
    26    14    16    1
    27    14    17    1
    28     8     9   ar
    29     9    10   ar
    30    29    30   ar
    31    30    31   ar
    32    31    26   ar
    33    25    20   ar
    34    10     5   ar
    35     1     4    1
@<TRIPOS>MOLECULE
*****
 33 35 0 0 0
SMALL
GASTEIGER

@<TRIPOS>ATOM
      1 N         138.2633  141.8060  163.1820 N.am    1  UNL1       -0.3005
      2 C         138.3311  140.4364  163.7898 C.2     1  UNL1        0.2474
      3 O         138.0327  139.2285  162.9521 O.2     1  UNL1       -0.2701
      4 H         138.4591  142.5989  163.7318 H       1  UNL1        0.1498
      5 C         138.6973  140.2748  165.2354 C.ar    1  UNL1        0.0727
      6 C         139.6855  141.2095  165.8678 C.ar    1  UNL1        0.0109
      7 C         140.0517  141.0479  167.3134 C.ar    1  UNL1        0.0579
      8 C         139.4298  139.9515  168.1266 C.ar    1  UNL1        0.2249
      9 N         138.4417  139.0168  167.4942 N.ar    1  UNL1       -0.2100
     10 C         138.0755  139.1784  166.0486 C.ar    1  UNL1        0.1065
     11 O         139.7961  139.7899  169.5721 O.3     1  UNL1       -0.4599
     12 C         141.0537  140.4131  170.1014 C.3     1  UNL1        0.2159
     13 C         140.9830  141.6754  170.9086 C.3     1  UNL1        0.1505
     14 C         140.6166  142.9701  170.2455 C.3     1  UNL1        0.4014
     15 F         140.2501  144.2647  169.5824 F       1  UNL1       -0.1699
     16 F         139.1782  142.7492  170.6091 F       1  UNL1       -0.1699
     17 F         142.0549  143.1910  169.8818 F       1  UNL1       -0.1699
     18 C         137.8970  141.9678  161.7363 C.3     1  UNL1        0.0944
     19 C         138.9701  142.1791  160.7099 C.3     1  UNL1        0.0476
     20 C         141.1178  140.7429  160.4359 C.ar    1  UNL1       -0.0009
     21 C         141.8240  139.5636  159.8355 C.ar    1  UNL1       -0.0002
     22 C         141.0890  138.6413  158.9087 C.ar    1  UNL1       -0.0000
     23 C         139.6477  138.8982  158.5822 C.ar    1  UNL1       -0.0003
     24 C         138.9414  140.0775  159.1826 C.ar    1  UNL1       -0.0042
     25 C         139.6765  140.9998  160.1094 C.ar    1  UNL1       -0.0204
     26 C         143.3228  143.5098  163.2165 C.ar    1  UNL1        0.3201
     27 N         142.5980  142.3166  163.7649 N.ar    1  UNL1       -0.1927
     28 C         141.8629  141.3943  162.8381 C.ar    1  UNL1        0.1051
     29 C         141.8528  141.6652  161.3628 C.ar    1  UNL1        0.0383
     30 C         142.5777  142.8584  160.8144 C.ar    1  UNL1        0.1051
     31 N         143.3127  143.7807  161.7412 N.ar    1  UNL1       -0.1927
     32 C         144.6535  143.9009  165.4134 C.3     1  UNL1        0.2559
     33 O         144.0579  144.4321  164.1434 O.3     1  UNL1       -0.4426
@<TRIPOS>BOND
     1    32    33    1
     2    33    26    1
     3    26    27   ar
     4    27    28   ar
     5    28    29   ar
     6    29    20    1
     7    20    21   ar
     8    21    22   ar
     9    22    23   ar
    10    23    24   ar
    11    24    25   ar
    12    25    19    1
    13    19    18    1
    14    18     1    1
    15     1     2   am
    16     2     3    2
    17     2     5    1
    18     5     6   ar
    19     6     7   ar
    20     7     8   ar
    21     8    11    1
    22    11    12    1
    23    12    13    1
    24    13    14    1
    25    14    15    1
    26    14    16    1
    27    14    17    1
    28     8     9   ar
    29     9    10   ar
    30    29    30   ar
    31    30    31   ar
    32    31    26   ar
    33    25    20   ar
    34    10     5   ar
    35     1     4    1
@<TRIPOS>MOLECULE
*****
 33 35 0 0 0
SMALL
GASTEIGER

@<TRIPOS>ATOM
      1 N         138.4402  140.5010  164.7773 N.am    1  UNL1       -0.3005
      2 C         138.7443  139.9135  163.4311 C.2     1  UNL1        0.2474
      3 O         139.0697  138.4546  163.3056 O.2     1  UNL1       -0.2701
      4 H         138.2266  141.4585  164.8596 H       1  UNL1        0.1498
      5 C         138.7230  140.7849  162.2103 C.ar    1  UNL1        0.0727
      6 C         139.3587  140.3088  160.9378 C.ar    1  UNL1        0.0109
      7 C         139.3374  141.1802  159.7171 C.ar    1  UNL1        0.0579
      8 C         138.6804  142.5276  159.7688 C.ar    1  UNL1        0.2249
      9 N         138.0447  143.0037  161.0413 N.ar    1  UNL1       -0.2100
     10 C         138.0660  142.1324  162.2621 C.ar    1  UNL1        0.1065
     11 O         138.6591  143.3990  158.5481 O.3     1  UNL1       -0.4599
     12 C         139.9189  144.0656  158.0803 C.3     1  UNL1        0.2159
     13 C         140.3889  145.3280  158.7399 C.3     1  UNL1        0.1505
     14 C         140.8515  145.3015  160.1666 C.3     1  UNL1        0.4014
     15 F         141.3139  145.2750  161.5933 F       1  UNL1       -0.1699
     16 F         141.9902  144.4047  159.7808 F       1  UNL1       -0.1699
     17 F         139.7127  146.1983  160.5525 F       1  UNL1       -0.1699
     18 C         138.4615  139.6296  165.9981 C.3     1  UNL1        0.0944
     19 C         139.6651  139.6220  166.8931 C.3     1  UNL1        0.0476
     20 C         140.5629  141.9021  167.7564 C.ar    1  UNL1       -0.0009
     21 C         140.6883  142.9176  168.8532 C.ar    1  UNL1       -0.0002
     22 C         140.0416  142.6685  170.1835 C.ar    1  UNL1       -0.0000
     23 C         139.2694  141.4040  170.4171 C.ar    1  UNL1       -0.0003
     24 C         139.1439  140.3885  169.3203 C.ar    1  UNL1       -0.0042
     25 C         139.7906  140.6375  167.9900 C.ar    1  UNL1       -0.0204
     26 C         142.5030  142.6492  163.7655 C.ar    1  UNL1        0.3201
     27 N         143.1983  141.8035  164.7908 N.ar    1  UNL1       -0.1927
     28 C         142.5515  141.5545  166.1211 C.ar    1  UNL1        0.1051
     29 C         141.2096  142.1511  166.4261 C.ar    1  UNL1        0.0383
     30 C         140.5143  142.9968  165.4008 C.ar    1  UNL1        0.1051
     31 N         141.1610  143.2459  164.0705 N.ar    1  UNL1       -0.1927
     32 C         144.3664  143.7708  162.3444 C.3     1  UNL1        0.2559
     33 O         143.1497  142.8982  162.4352 O.3     1  UNL1       -0.4426
@<TRIPOS>BOND
     1    32    33    1
     2    33    26    1
     3    26    27   ar
     4    27    28   ar
     5    28    29   ar
     6    29    20    1
     7    20    21   ar
     8    21    22   ar
     9    22    23   ar
    10    23    24   ar
    11    24    25   ar
    12    25    19    1
    13    19    18    1
    14    18     1    1
    15     1     2   am
    16     2     3    2
    17     2     5    1
    18     5     6   ar
    19     6     7   ar
    20     7     8   ar
    21     8    11    1
    22    11    12    1
    23    12    13    1
    24    13    14    1
    25    14    15    1
    26    14    16    1
    27    14    17    1
    28     8     9   ar
    29     9    10   ar
    30    29    30   ar
    31    30    31   ar
    32    31    26   ar
    33    25    20   ar
    34    10     5   ar
    35     1     4    1
@<TRIPOS>MOLECULE
*****
 33 35 0 0 0
SMALL
GASTEIGER

@<TRIPOS>ATOM
      1 N         140.1592  138.5255  163.2774 N.am    1  UNL1       -0.3005
      2 C         139.6120  138.3472  161.8923 C.2     1  UNL1        0.2474
      3 O         138.1296  138.2744  161.6751 O.2     1  UNL1       -0.2701
      4 H         141.1322  138.5733  163.4199 H       1  UNL1        0.1498
      5 C         140.5472  138.2416  160.7243 C.ar    1  UNL1        0.0727
      6 C         142.0063  137.9795  160.9531 C.ar    1  UNL1        0.0109
      7 C         142.9415  137.8739  159.7851 C.ar    1  UNL1        0.0579
      8 C         142.4176  138.0304  158.3883 C.ar    1  UNL1        0.2249
      9 N         140.9586  138.2925  158.1595 N.ar    1  UNL1       -0.2100
     10 C         140.0233  138.3981  159.3275 C.ar    1  UNL1        0.1065
     11 O         143.3528  137.9249  157.2203 O.3     1  UNL1       -0.4599
     12 C         143.4169  136.6558  156.4231 C.3     1  UNL1        0.2159
     13 C         142.8387  135.3894  156.9814 C.3     1  UNL1        0.1505
     14 C         143.7341  134.2228  157.2775 C.3     1  UNL1        0.4014
     15 F         144.6293  133.0563  157.5735 F       1  UNL1       -0.1699
     16 F         143.9007  133.9775  155.8071 F       1  UNL1       -0.1699
     17 F         143.5674  134.4681  158.7478 F       1  UNL1       -0.1699
     18 C         139.2240  138.6311  164.4455 C.3     1  UNL1        0.0944
     19 C         138.7520  139.9773  164.9090 C.3     1  UNL1        0.0476
     20 C         139.8053  142.0105  166.1365 C.ar    1  UNL1       -0.0009
     21 C         140.3833  142.6210  167.3787 C.ar    1  UNL1       -0.0002
     22 C         140.4859  141.8090  168.6357 C.ar    1  UNL1       -0.0000
     23 C         140.0105  140.3864  168.6505 C.ar    1  UNL1       -0.0003
     24 C         139.4326  139.7759  167.4083 C.ar    1  UNL1       -0.0042
     25 C         139.3300  140.5879  166.1513 C.ar    1  UNL1       -0.0204
     26 C         139.4975  144.4465  162.3654 C.ar    1  UNL1        0.3201
     27 N         140.7457  143.6666  162.6547 N.ar    1  UNL1       -0.1927
     28 C         140.8483  142.8546  163.9117 C.ar    1  UNL1        0.1051
     29 C         139.7027  142.8225  164.8795 C.ar    1  UNL1        0.0383
     30 C         138.4545  143.6024  164.5902 C.ar    1  UNL1        0.1051
     31 N         138.3519  144.4145  163.3332 N.ar    1  UNL1       -0.1927
     32 C         140.5401  145.2898  160.1401 C.3     1  UNL1        0.2559
     33 O         139.3949  145.2586  161.1084 O.3     1  UNL1       -0.4426
@<TRIPOS>BOND
     1    32    33    1
     2    33    26    1
     3    26    27   ar
     4    27    28   ar
     5    28    29   ar
     6    29    20    1
     7    20    21   ar
     8    21    22   ar
     9    22    23   ar
    10    23    24   ar
    11    24    25   ar
    12    25    19    1
    13    19    18    1
    14    18     1    1
    15     1     2   am
    16     2     3    2
    17     2     5    1
    18     5     6   ar
    19     6     7   ar
    20     7     8   ar
    21     8    11    1
    22    11    12    1
    23    12    13    1
    24    13    14    1
    25    14    15    1
    26    14    16    1
    27    14    17    1
    28     8     9   ar
    29     9    10   ar
    30    29    30   ar
    31    30    31   ar
    32    31    26   ar
    33    25    20   ar
    34    10     5   ar
    35     1     4    1
@<TRIPOS>MOLECULE
*****
 33 35 0 0 0
SMALL
GASTEIGER

@<TRIPOS>ATOM
      1 N         142.4536  138.5309  164.8326 N.am    1  UNL1       -0.3005
      2 C         143.4218  138.8041  163.7200 C.2     1  UNL1        0.2474
      3 O         144.8016  139.3028  164.0321 O.2     1  UNL1       -0.2701
      4 H         141.5479  138.2036  164.6278 H       1  UNL1        0.1498
      5 C         143.0101  138.5787  162.2953 C.ar    1  UNL1        0.0727
      6 C         141.5579  138.6090  161.9205 C.ar    1  UNL1        0.0109
      7 C         141.1463  138.3836  160.4958 C.ar    1  UNL1        0.0579
      8 C         142.1867  138.1279  159.4460 C.ar    1  UNL1        0.2249
      9 N         143.6388  138.0977  159.8208 N.ar    1  UNL1       -0.2100
     10 C         144.0505  138.3231  161.2455 C.ar    1  UNL1        0.1065
     11 O         141.7750  137.9025  158.0213 O.3     1  UNL1       -0.4599
     12 C         142.7759  137.4042  157.0213 C.3     1  UNL1        0.2159
     13 C         143.0646  135.9360  156.9169 C.3     1  UNL1        0.1505
     14 C         143.0764  135.2675  155.5740 C.3     1  UNL1        0.4014
     15 F         143.0882  134.5991  154.2313 F       1  UNL1       -0.1699
     16 F         141.6777  134.7777  155.8055 F       1  UNL1       -0.1699
     17 F         144.4751  135.7573  155.3425 F       1  UNL1       -0.1699
     18 C         142.8652  138.7563  166.2573 C.3     1  UNL1        0.0944
     19 C         142.5997  140.0782  166.9145 C.3     1  UNL1        0.0476
     20 C         140.2310  140.1869  167.9763 C.ar    1  UNL1       -0.0009
     21 C         139.3540  140.2578  169.1912 C.ar    1  UNL1       -0.0002
     22 C         139.9687  140.2910  170.5590 C.ar    1  UNL1       -0.0000
     23 C         141.4604  140.2533  170.7121 C.ar    1  UNL1       -0.0003
     24 C         142.3374  140.1824  169.4973 C.ar    1  UNL1       -0.0042
     25 C         141.7227  140.1491  168.1294 C.ar    1  UNL1       -0.0204
     26 C         138.3870  140.0872  163.8727 C.ar    1  UNL1        0.3201
     27 N         138.9127  141.3778  164.4276 N.ar    1  UNL1       -0.1927
     28 C         139.5274  141.4110  165.7955 C.ar    1  UNL1        0.1051
     29 C         139.6163  140.1536  166.6085 C.ar    1  UNL1        0.0383
     30 C         139.0906  138.8630  166.0536 C.ar    1  UNL1        0.1051
     31 N         138.4759  138.8298  164.6858 N.ar    1  UNL1       -0.1927
     32 C         137.7255  138.7676  161.7347 C.3     1  UNL1        0.2559
     33 O         137.7723  140.0539  162.5049 O.3     1  UNL1       -0.4426
@<TRIPOS>BOND
     1    32    33    1
     2    33    26    1
     3    26    27   ar
     4    27    28   ar
     5    28    29   ar
     6    29    20    1
     7    20    21   ar
     8    21    22   ar
     9    22    23   ar
    10    23    24   ar
    11    24    25   ar
    12    25    19    1
    13    19    18    1
    14    18     1    1
    15     1     2   am
    16     2     3    2
    17     2     5    1
    18     5     6   ar
    19     6     7   ar
    20     7     8   ar
    21     8    11    1
    22    11    12    1
    23    12    13    1
    24    13    14    1
    25    14    15    1
    26    14    16    1
    27    14    17    1
    28     8     9   ar
    29     9    10   ar
    30    29    30   ar
    31    30    31   ar
    32    31    26   ar
    33    25    20   ar
    34    10     5   ar
    35     1     4    1
@<TRIPOS>MOLECULE
*****
 33 35 0 0 0
SMALL
GASTEIGER

@<TRIPOS>ATOM
      1 N         142.9972  142.1101  163.9103 N.am    1  UNL1       -0.3005
      2 C         143.8860  140.9787  163.4863 C.2     1  UNL1        0.2474
      3 O         144.8857  140.4090  164.4487 O.2     1  UNL1       -0.2701
      4 H         142.3411  142.4839  163.2786 H       1  UNL1        0.1498
      5 C         143.7753  140.4169  162.0999 C.ar    1  UNL1        0.0727
      6 C         143.4169  141.3151  160.9532 C.ar    1  UNL1        0.0109
      7 C         143.3061  140.7534  159.5668 C.ar    1  UNL1        0.0579
      8 C         143.5536  139.2935  159.3270 C.ar    1  UNL1        0.2249
      9 N         143.9120  138.3953  160.4737 N.ar    1  UNL1       -0.2100
     10 C         144.0228  138.9570  161.8602 C.ar    1  UNL1        0.1065
     11 O         143.4428  138.7317  157.9406 O.3     1  UNL1       -0.4599
     12 C         142.5448  137.5598  157.6758 C.3     1  UNL1        0.2159
     13 C         142.5691  136.8837  156.3370 C.3     1  UNL1        0.1505
     14 C         143.3920  135.6456  156.1368 C.3     1  UNL1        0.4014
     15 F         144.2148  134.4075  155.9367 F       1  UNL1       -0.1699
     16 F         144.5627  136.4897  155.7282 F       1  UNL1       -0.1699
     17 F         142.2214  134.8015  156.5454 F       1  UNL1       -0.1699
     18 C         143.1080  142.6719  165.2968 C.3     1  UNL1        0.0944
     19 C         142.0271  142.4060  166.3023 C.3     1  UNL1        0.0476
     20 C         141.8904  140.2736  167.7802 C.ar    1  UNL1       -0.0009
     21 C         142.2136  139.5547  169.0563 C.ar    1  UNL1       -0.0002
     22 C         142.9967  140.2492  170.1308 C.ar    1  UNL1       -0.0000
     23 C         143.4566  141.6626  169.9291 C.ar    1  UNL1       -0.0003
     24 C         143.1334  142.3815  168.6530 C.ar    1  UNL1       -0.0042
     25 C         142.3503  141.6870  167.5785 C.ar    1  UNL1       -0.0204
     26 C         139.5412  138.1902  164.5567 C.ar    1  UNL1        0.3201
     27 N         138.8279  138.9856  165.6095 N.ar    1  UNL1       -0.1927
     28 C         139.6110  139.6801  166.6840 C.ar    1  UNL1        0.1051
     29 C         141.1074  139.5791  166.7057 C.ar    1  UNL1        0.0383
     30 C         141.8207  138.7836  165.6530 C.ar    1  UNL1        0.1051
     31 N         141.0377  138.0892  164.5785 N.ar    1  UNL1       -0.1927
     32 C         138.5623  138.1572  162.1504 C.3     1  UNL1        0.2559
     33 O         138.7582  137.4957  163.4823 O.3     1  UNL1       -0.4426
@<TRIPOS>BOND
     1    32    33    1
     2    33    26    1
     3    26    27   ar
     4    27    28   ar
     5    28    29   ar
     6    29    20    1
     7    20    21   ar
     8    21    22   ar
     9    22    23   ar
    10    23    24   ar
    11    24    25   ar
    12    25    19    1
    13    19    18    1
    14    18     1    1
    15     1     2   am
    16     2     3    2
    17     2     5    1
    18     5     6   ar
    19     6     7   ar
    20     7     8   ar
    21     8    11    1
    22    11    12    1
    23    12    13    1
    24    13    14    1
    25    14    15    1
    26    14    16    1
    27    14    17    1
    28     8     9   ar
    29     9    10   ar
    30    29    30   ar
    31    30    31   ar
    32    31    26   ar
    33    25    20   ar
    34    10     5   ar
    35     1     4    1
@<TRIPOS>MOLECULE
*****
 33 35 0 0 0
SMALL
GASTEIGER

@<TRIPOS>ATOM
      1 N         139.5279  138.2557  163.8101 N.am    1  UNL1       -0.3005
      2 C         141.0254  138.2784  163.7269 C.2     1  UNL1        0.2474
      3 O         141.8480  138.1411  164.9737 O.2     1  UNL1       -0.2701
      4 H         138.9880  138.3457  162.9918 H       1  UNL1        0.1498
      5 C         141.7003  138.4384  162.3969 C.ar    1  UNL1        0.0727
      6 C         143.1853  138.2600  162.2831 C.ar    1  UNL1        0.0109
      7 C         143.8602  138.4200  160.9531 C.ar    1  UNL1        0.0579
      8 C         143.0501  138.7584  159.7369 C.ar    1  UNL1        0.2249
      9 N         141.5651  138.9367  159.8506 N.ar    1  UNL1       -0.2100
     10 C         140.8901  138.7767  161.1806 C.ar    1  UNL1        0.1065
     11 O         143.7249  138.9184  158.4069 O.3     1  UNL1       -0.4599
     12 C         143.7287  140.2537  157.7235 C.3     1  UNL1        0.2159
     13 C         144.4666  141.4073  158.3354 C.3     1  UNL1        0.1505
     14 C         143.7580  142.3376  159.2749 C.3     1  UNL1        0.4014
     15 F         143.0493  143.2677  160.2143 F       1  UNL1       -0.1699
     16 F         144.4751  141.7126  160.4347 F       1  UNL1       -0.1699
     17 F         143.0408  142.9625  158.1151 F       1  UNL1       -0.1699
     18 C         138.8530  138.0957  165.1401 C.3     1  UNL1        0.0944
     19 C         138.2158  139.2796  165.8051 C.3     1  UNL1        0.0476
     20 C         139.5311  141.5104  166.0142 C.ar    1  UNL1       -0.0009
     21 C         140.3672  142.4542  166.8267 C.ar    1  UNL1       -0.0002
     22 C         140.7242  142.1110  168.2426 C.ar    1  UNL1       -0.0000
     23 C         140.2451  140.8240  168.8460 C.ar    1  UNL1       -0.0003
     24 C         139.4090  139.8803  168.0335 C.ar    1  UNL1       -0.0042
     25 C         139.0520  140.2235  166.6176 C.ar    1  UNL1       -0.0204
     26 C         138.4602  142.5400  161.7664 C.ar    1  UNL1        0.3201
     27 N         139.8580  142.1142  162.1054 N.ar    1  UNL1       -0.1927
     28 C         140.2149  141.7710  163.5213 C.ar    1  UNL1        0.1051
     29 C         139.1742  141.8536  164.5983 C.ar    1  UNL1        0.0383
     30 C         137.7764  142.2794  164.2593 C.ar    1  UNL1        0.1051
     31 N         137.4194  142.6226  162.8434 N.ar    1  UNL1       -0.1927
     32 C         139.1856  143.1736  159.3535 C.3     1  UNL1        0.2559
     33 O         138.1032  142.8831  160.3505 O.3     1  UNL1       -0.4426
@<TRIPOS>BOND
     1    32    33    1
     2    33    26    1
     3    26    27   ar
     4    27    28   ar
     5    28    29   ar
     6    29    20    1
     7    20    21   ar
     8    21    22   ar
     9    22    23   ar
    10    23    24   ar
    11    24    25   ar
    12    25    19    1
    13    19    18    1
    14    18     1    1
    15     1     2   am
    16     2     3    2
    17     2     5    1
    18     5     6   ar
    19     6     7   ar
    20     7     8   ar
    21     8    11    1
    22    11    12    1
    23    12    13    1
    24    13    14    1
    25    14    15    1
    26    14    16    1
    27    14    17    1
    28     8     9   ar
    29     9    10   ar
    30    29    30   ar
    31    30    31   ar
    32    31    26   ar
    33    25    20   ar
    34    10     5   ar
    35     1     4    1
