@<TRIPOS>MOLECULE
*****
 33 36 0 0 0
SMALL
GASTEIGER

@<TRIPOS>ATOM
      1 C         140.4756  141.6269  165.3853 C.3     1  UNL1        0.0707
      2 C         139.7776  140.3097  165.5521 C.ar    1  UNL1       -0.0161
      3 C         138.8864  140.0778  166.7362 C.ar    1  UNL1       -0.0016
      4 C         138.1884  138.7607  166.9030 C.ar    1  UNL1        0.0293
      5 C         138.3815  137.6754  165.8857 C.ar    1  UNL1        0.1401
      6 F         137.6835  136.3582  166.0526 F       1  UNL1       -0.2042
      7 C         139.2727  137.9073  164.7016 C.ar    1  UNL1        0.0293
      8 C         139.9707  139.2244  164.5347 C.ar    1  UNL1       -0.0016
      9 C         140.0736  144.6349  162.8278 C.ar    1  UNL1        0.1463
     10 C         138.5941  144.8713  162.8986 C.ar    1  UNL1        0.0356
     11 C         137.7417  144.0263  163.7982 C.ar    1  UNL1        0.0041
     12 C         138.3688  142.9448  164.6271 C.ar    1  UNL1        0.0152
     13 C         139.8484  142.7084  164.5563 C.ar    1  UNL1        0.0648
     14 N         140.7007  143.5535  163.6567 N.ar    1  UNL1       -0.2334
     15 N         140.9260  145.4800  161.9282 N.pl3   1  UNL1       -0.2027
     16 H         141.3352  146.3068  162.2719 H       1  UNL1        0.1749
     17 C         141.3838  144.6505  159.0817 C.3     1  UNL1        0.1996
     18 S         141.1549  145.0653  160.5050 S.O2    1  UNL1        0.0569
     19 O         142.4575  144.4341  160.8984 O.2     1  UNL1       -0.1544
     20 O         139.8522  145.6964  160.1116 O.2     1  UNL1       -0.1544
     21 C         141.8007  141.8626  166.0473 C.3     1  UNL1        0.0572
     22 C         143.0719  141.6133  165.2909 C.ar    1  UNL1        0.0015
     23 C         143.5297  140.2078  165.0361 C.ar    1  UNL1       -0.0008
     24 C         144.8008  139.9586  164.2797 C.ar    1  UNL1        0.0204
     25 C         145.6142  141.1149  163.7782 C.ar    1  UNL1        0.0989
     26 N         145.1564  142.5204  164.0331 N.ar    1  UNL1       -0.2426
     27 C         143.8853  142.7696  164.7894 C.ar    1  UNL1        0.0949
     28 C         141.8548  142.3476  167.4657 C.ar    1  UNL1        0.0015
     29 C         140.6220  142.9013  168.1165 C.ar    1  UNL1       -0.0008
     30 C         140.6761  143.3863  169.5349 C.ar    1  UNL1        0.0204
     31 C         141.9630  143.3175  170.3025 C.ar    1  UNL1        0.0989
     32 N         143.1958  142.7638  169.6517 N.ar    1  UNL1       -0.2426
     33 C         143.1418  142.2788  168.2333 C.ar    1  UNL1        0.0949
@<TRIPOS>BOND
     1    17    18    1
     2    18    19    2
     3    18    20    2
     4    18    15    1
     5    15     9    1
     6     9    10   ar
     7    10    11   ar
     8    11    12   ar
     9    12    13   ar
    10    13     1    1
    11     1     2    1
    12     2     3   ar
    13     3     4   ar
    14     4     5   ar
    15     5     6    1
    16     5     7   ar
    17     7     8   ar
    18     1    21    1
    19    21    22    1
    20    22    23   ar
    21    23    24   ar
    22    24    25   ar
    23    25    26   ar
    24    26    27   ar
    25    21    28    1
    26    28    29   ar
    27    29    30   ar
    28    30    31   ar
    29    31    32   ar
    30    32    33   ar
    31    13    14   ar
    32    14     9   ar
    33     8     2   ar
    34    27    22   ar
    35    33    28   ar
    36    15    16    1
@<TRIPOS>MOLECULE
*****
 33 36 0 0 0
SMALL
GASTEIGER

@<TRIPOS>ATOM
      1 C         140.4855  141.6274  165.3777 C.3     1  UNL1        0.0707
      2 C         139.7860  140.3113  165.5466 C.ar    1  UNL1       -0.0161
      3 C         138.9008  140.0794  166.7350 C.ar    1  UNL1       -0.0016
      4 C         138.2013  138.7633  166.9039 C.ar    1  UNL1        0.0293
      5 C         138.3872  137.6790  165.8842 C.ar    1  UNL1        0.1401
      6 F         137.6877  136.3628  166.0531 F       1  UNL1       -0.2042
      7 C         139.2725  137.9108  164.6957 C.ar    1  UNL1        0.0293
      8 C         139.9719  139.2269  164.5268 C.ar    1  UNL1       -0.0016
      9 C         140.0826  144.6287  162.8126 C.ar    1  UNL1        0.1463
     10 C         138.6046  144.8723  162.8911 C.ar    1  UNL1        0.0356
     11 C         137.7536  144.0342  163.7984 C.ar    1  UNL1        0.0041
     12 C         138.3805  142.9526  164.6273 C.ar    1  UNL1        0.0152
     13 C         139.8585  142.7091  164.5488 C.ar    1  UNL1        0.0648
     14 N         140.7096  143.5472  163.6414 N.ar    1  UNL1       -0.2334
     15 N         140.9337  145.4668  161.9052 N.pl3   1  UNL1       -0.2027
     16 H         141.3379  146.2998  162.2399 H       1  UNL1        0.1749
     17 C         141.4043  144.6047  159.0705 C.3     1  UNL1        0.1996
     18 S         141.1689  145.0358  160.4879 S.O2    1  UNL1        0.0569
     19 O         142.4731  144.4154  160.8930 O.2     1  UNL1       -0.1544
     20 O         139.8648  145.6562  160.0828 O.2     1  UNL1       -0.1544
     21 C         141.8119  141.8620  166.0377 C.3     1  UNL1        0.0572
     22 C         141.8686  142.3420  167.4578 C.ar    1  UNL1        0.0015
     23 C         140.6373  142.8948  168.1123 C.ar    1  UNL1       -0.0008
     24 C         140.6941  143.3748  169.5323 C.ar    1  UNL1        0.0204
     25 C         141.9820  143.3020  170.2977 C.ar    1  UNL1        0.0989
     26 N         143.2133  142.7492  169.6432 N.ar    1  UNL1       -0.2426
     27 C         143.1565  142.2693  168.2232 C.ar    1  UNL1        0.0949
     28 C         143.0816  141.6165  165.2778 C.ar    1  UNL1        0.0015
     29 C         143.5532  140.2129  165.0387 C.ar    1  UNL1       -0.0008
     30 C         144.8229  139.9674  164.2788 C.ar    1  UNL1        0.0204
     31 C         145.6211  141.1257  163.7579 C.ar    1  UNL1        0.0989
     32 N         145.1495  142.5294  163.9970 N.ar    1  UNL1       -0.2426
     33 C         143.8798  142.7749  164.7569 C.ar    1  UNL1        0.0949
@<TRIPOS>BOND
     1    17    18    1
     2    18    19    2
     3    18    20    2
     4    18    15    1
     5    15     9    1
     6     9    10   ar
     7    10    11   ar
     8    11    12   ar
     9    12    13   ar
    10    13     1    1
    11     1     2    1
    12     2     3   ar
    13     3     4   ar
    14     4     5   ar
    15     5     6    1
    16     5     7   ar
    17     7     8   ar
    18     1    21    1
    19    21    22    1
    20    22    23   ar
    21    23    24   ar
    22    24    25   ar
    23    25    26   ar
    24    26    27   ar
    25    21    28    1
    26    28    29   ar
    27    29    30   ar
    28    30    31   ar
    29    31    32   ar
    30    32    33   ar
    31    13    14   ar
    32    14     9   ar
    33     8     2   ar
    34    27    22   ar
    35    33    28   ar
    36    15    16    1
@<TRIPOS>MOLECULE
*****
 33 36 0 0 0
SMALL
GASTEIGER

@<TRIPOS>ATOM
      1 C         140.9784  141.4799  166.2460 C.3     1  UNL1        0.0707
      2 C         141.4950  141.9878  167.5595 C.ar    1  UNL1       -0.0161
      3 C         142.8608  141.5878  168.0334 C.ar    1  UNL1       -0.0016
      4 C         143.3774  142.0956  169.3469 C.ar    1  UNL1        0.0293
      5 C         142.5283  143.0035  170.1864 C.ar    1  UNL1        0.1401
      6 F         143.0450  143.5113  171.4998 F       1  UNL1       -0.2042
      7 C         141.1625  143.4035  169.7124 C.ar    1  UNL1        0.0293
      8 C         140.6458  142.8956  168.3990 C.ar    1  UNL1       -0.0016
      9 C         138.9872  138.2960  164.9622 C.ar    1  UNL1        0.1463
     10 C         138.1085  138.0153  166.1450 C.ar    1  UNL1        0.0356
     11 C         138.1863  138.8895  167.3614 C.ar    1  UNL1        0.0041
     12 C         139.1429  140.0444  167.3951 C.ar    1  UNL1        0.0152
     13 C         140.0217  140.3250  166.2124 C.ar    1  UNL1        0.0648
     14 N         139.9439  139.4508  164.9959 N.ar    1  UNL1       -0.2334
     15 N         138.9094  137.4218  163.7458 N.pl3   1  UNL1       -0.2027
     16 H         138.5901  136.4940  163.8260 H       1  UNL1        0.1749
     17 C         139.7269  138.5006  161.0685 C.3     1  UNL1        0.1996
     18 S         139.3181  137.9612  162.4072 S.O2    1  UNL1        0.0569
     19 O         140.6303  137.2431  162.5184 O.2     1  UNL1       -0.1544
     20 O         138.0059  138.6793  162.2959 O.2     1  UNL1       -0.1544
     21 C         141.4183  142.1269  164.9663 C.3     1  UNL1        0.0572
     22 C         142.7908  141.8587  164.4234 C.ar    1  UNL1        0.0015
     23 C         143.9126  142.8101  164.7171 C.ar    1  UNL1       -0.0008
     24 C         145.2849  142.5418  164.1743 C.ar    1  UNL1        0.0204
     25 C         145.5354  141.3222  163.3377 C.ar    1  UNL1        0.0989
     26 N         144.4136  140.3708  163.0440 N.ar    1  UNL1       -0.2426
     27 C         143.0413  140.6390  163.5869 C.ar    1  UNL1        0.0949
     28 C         140.4860  143.0421  164.2293 C.ar    1  UNL1        0.0015
     29 C         139.3214  143.6605  164.9442 C.ar    1  UNL1       -0.0008
     30 C         138.3890  144.5757  164.2073 C.ar    1  UNL1        0.0204
     31 C         138.6212  144.8724  162.7554 C.ar    1  UNL1        0.0989
     32 N         139.7859  144.2540  162.0404 N.ar    1  UNL1       -0.2426
     33 C         140.7183  143.3388  162.7774 C.ar    1  UNL1        0.0949
@<TRIPOS>BOND
     1    17    18    1
     2    18    19    2
     3    18    20    2
     4    18    15    1
     5    15     9    1
     6     9    10   ar
     7    10    11   ar
     8    11    12   ar
     9    12    13   ar
    10    13     1    1
    11     1     2    1
    12     2     3   ar
    13     3     4   ar
    14     4     5   ar
    15     5     6    1
    16     5     7   ar
    17     7     8   ar
    18     1    21    1
    19    21    22    1
    20    22    23   ar
    21    23    24   ar
    22    24    25   ar
    23    25    26   ar
    24    26    27   ar
    25    21    28    1
    26    28    29   ar
    27    29    30   ar
    28    30    31   ar
    29    31    32   ar
    30    32    33   ar
    31    13    14   ar
    32    14     9   ar
    33     8     2   ar
    34    27    22   ar
    35    33    28   ar
    36    15    16    1
@<TRIPOS>MOLECULE
*****
 33 36 0 0 0
SMALL
GASTEIGER

@<TRIPOS>ATOM
      1 C         141.0044  141.4378  166.2900 C.3     1  UNL1        0.0707
      2 C         141.5051  141.9453  167.6097 C.ar    1  UNL1       -0.0161
      3 C         140.6776  142.9112  168.4047 C.ar    1  UNL1       -0.0016
      4 C         141.1783  143.4187  169.7244 C.ar    1  UNL1        0.0293
      5 C         142.5065  142.9603  170.2492 C.ar    1  UNL1        0.1401
      6 F         143.0072  143.4678  171.5690 F       1  UNL1       -0.2042
      7 C         143.3342  141.9943  169.4543 C.ar    1  UNL1        0.0293
      8 C         142.8335  141.4868  168.1345 C.ar    1  UNL1       -0.0016
      9 C         138.9899  138.2791  164.9804 C.ar    1  UNL1        0.1463
     10 C         138.0991  138.0040  166.1554 C.ar    1  UNL1        0.0356
     11 C         138.1767  138.8734  167.3753 C.ar    1  UNL1        0.0041
     12 C         139.1452  140.0179  167.4202 C.ar    1  UNL1        0.0152
     13 C         140.0360  140.2931  166.2452 C.ar    1  UNL1        0.0648
     14 N         139.9583  139.4237  165.0253 N.ar    1  UNL1       -0.2334
     15 N         138.9123  137.4097  163.7605 N.pl3   1  UNL1       -0.2027
     16 H         138.6114  136.4757  163.8400 H       1  UNL1        0.1749
     17 C         139.6740  138.5171  161.0784 C.3     1  UNL1        0.1996
     18 S         139.2931  137.9634  162.4195 S.O2    1  UNL1        0.0569
     19 O         137.9674  138.6594  162.3303 O.2     1  UNL1       -0.1544
     20 O         140.6189  137.2674  162.5087 O.2     1  UNL1       -0.1544
     21 C         141.4722  142.0748  165.0151 C.3     1  UNL1        0.0572
     22 C         140.5616  142.9965  164.2591 C.ar    1  UNL1        0.0015
     23 C         139.7148  143.9883  165.0002 C.ar    1  UNL1       -0.0008
     24 C         138.8043  144.9099  164.2442 C.ar    1  UNL1        0.0204
     25 C         138.7406  144.8398  162.7472 C.ar    1  UNL1        0.0989
     26 N         139.5874  143.8480  162.0062 N.ar    1  UNL1       -0.2426
     27 C         140.4979  142.9264  162.7621 C.ar    1  UNL1        0.0949
     28 C         142.8505  141.7902  164.4961 C.ar    1  UNL1        0.0015
     29 C         143.9586  142.7731  164.7323 C.ar    1  UNL1       -0.0008
     30 C         145.3369  142.4885  164.2133 C.ar    1  UNL1        0.0204
     31 C         145.6070  141.2210  163.4582 C.ar    1  UNL1        0.0989
     32 N         144.4988  140.2380  163.2219 N.ar    1  UNL1       -0.2426
     33 C         143.1206  140.5226  163.7409 C.ar    1  UNL1        0.0949
@<TRIPOS>BOND
     1    17    18    1
     2    18    19    2
     3    18    20    2
     4    18    15    1
     5    15     9    1
     6     9    10   ar
     7    10    11   ar
     8    11    12   ar
     9    12    13   ar
    10    13     1    1
    11     1     2    1
    12     2     3   ar
    13     3     4   ar
    14     4     5   ar
    15     5     6    1
    16     5     7   ar
    17     7     8   ar
    18     1    21    1
    19    21    22    1
    20    22    23   ar
    21    23    24   ar
    22    24    25   ar
    23    25    26   ar
    24    26    27   ar
    25    21    28    1
    26    28    29   ar
    27    29    30   ar
    28    30    31   ar
    29    31    32   ar
    30    32    33   ar
    31    13    14   ar
    32    14     9   ar
    33     8     2   ar
    34    27    22   ar
    35    33    28   ar
    36    15    16    1
@<TRIPOS>MOLECULE
*****
 33 36 0 0 0
SMALL
GASTEIGER

@<TRIPOS>ATOM
      1 C         140.6136  141.7575  165.3131 C.3     1  UNL1        0.0707
      2 C         140.0997  142.8944  164.4804 C.ar    1  UNL1       -0.0161
      3 C         138.6263  143.0439  164.2428 C.ar    1  UNL1       -0.0016
      4 C         138.1124  144.1809  163.4101 C.ar    1  UNL1        0.0293
      5 C         139.0720  145.1683  162.8150 C.ar    1  UNL1        0.1401
      6 F         138.5582  146.3052  161.9823 F       1  UNL1       -0.2042
      7 C         140.5456  145.0188  163.0526 C.ar    1  UNL1        0.0293
      8 C         141.0594  143.8819  163.8853 C.ar    1  UNL1       -0.0016
      9 C         138.9167  138.3105  164.3185 C.ar    1  UNL1        0.1463
     10 C         138.2511  137.9391  165.6104 C.ar    1  UNL1        0.0356
     11 C         138.3730  138.8405  166.8032 C.ar    1  UNL1        0.0041
     12 C         139.1605  140.1132  166.7041 C.ar    1  UNL1        0.0152
     13 C         139.8261  140.4847  165.4122 C.ar    1  UNL1        0.0648
     14 N         139.7042  139.5833  164.2195 N.ar    1  UNL1       -0.2334
     15 N         138.7948  137.4092  163.1258 N.pl3   1  UNL1       -0.2027
     16 H         138.5551  136.4620  163.2470 H       1  UNL1        0.1749
     17 C         139.2812  138.4927  160.3709 C.3     1  UNL1        0.1996
     18 S         139.0380  137.9509  161.7484 S.O2    1  UNL1        0.0569
     19 O         137.6133  138.4148  161.6792 O.2     1  UNL1       -0.1544
     20 O         140.4628  137.4870  161.8175 O.2     1  UNL1       -0.1544
     21 C         141.9149  141.8934  166.0466 C.3     1  UNL1        0.0572
     22 C         141.9274  142.3632  167.4711 C.ar    1  UNL1        0.0015
     23 C         140.6795  142.9226  168.0874 C.ar    1  UNL1       -0.0008
     24 C         140.6921  143.3924  169.5118 C.ar    1  UNL1        0.0204
     25 C         141.9526  143.3027  170.3200 C.ar    1  UNL1        0.0989
     26 N         143.2004  142.7433  169.7038 N.ar    1  UNL1       -0.2426
     27 C         143.1879  142.2735  168.2793 C.ar    1  UNL1        0.0949
     28 C         143.2037  141.5595  165.3556 C.ar    1  UNL1        0.0015
     29 C         144.1198  142.6584  164.9051 C.ar    1  UNL1       -0.0008
     30 C         145.4086  142.3245  164.2141 C.ar    1  UNL1        0.0204
     31 C         145.7814  140.8916  163.9738 C.ar    1  UNL1        0.0989
     32 N         144.8653  139.7926  164.4243 N.ar    1  UNL1       -0.2426
     33 C         143.5765  140.1265  165.1153 C.ar    1  UNL1        0.0949
@<TRIPOS>BOND
     1    17    18    1
     2    18    19    2
     3    18    20    2
     4    18    15    1
     5    15     9    1
     6     9    10   ar
     7    10    11   ar
     8    11    12   ar
     9    12    13   ar
    10    13     1    1
    11     1     2    1
    12     2     3   ar
    13     3     4   ar
    14     4     5   ar
    15     5     6    1
    16     5     7   ar
    17     7     8   ar
    18     1    21    1
    19    21    22    1
    20    22    23   ar
    21    23    24   ar
    22    24    25   ar
    23    25    26   ar
    24    26    27   ar
    25    21    28    1
    26    28    29   ar
    27    29    30   ar
    28    30    31   ar
    29    31    32   ar
    30    32    33   ar
    31    13    14   ar
    32    14     9   ar
    33     8     2   ar
    34    27    22   ar
    35    33    28   ar
    36    15    16    1
@<TRIPOS>MOLECULE
*****
 33 36 0 0 0
SMALL
GASTEIGER

@<TRIPOS>ATOM
      1 C         140.6386  141.7754  165.2976 C.3     1  UNL1        0.0707
      2 C         140.1234  142.9085  164.4606 C.ar    1  UNL1       -0.0161
      3 C         141.0854  143.8133  163.7493 C.ar    1  UNL1       -0.0016
      4 C         140.5702  144.9464  162.9122 C.ar    1  UNL1        0.0293
      5 C         139.0931  145.1748  162.7865 C.ar    1  UNL1        0.1401
      6 F         138.5779  146.3079  161.9495 F       1  UNL1       -0.2042
      7 C         138.1310  144.2700  163.4978 C.ar    1  UNL1        0.0293
      8 C         138.6462  143.1369  164.3349 C.ar    1  UNL1       -0.0016
      9 C         138.9345  138.3316  164.3044 C.ar    1  UNL1        0.1463
     10 C         138.2851  137.9520  165.6021 C.ar    1  UNL1        0.0356
     11 C         138.4202  138.8468  166.7984 C.ar    1  UNL1        0.0041
     12 C         139.2047  140.1213  166.6969 C.ar    1  UNL1        0.0152
     13 C         139.8541  140.5009  165.3992 C.ar    1  UNL1        0.0648
     14 N         139.7190  139.6061  164.2029 N.ar    1  UNL1       -0.2334
     15 N         138.7994  137.4368  163.1081 N.pl3   1  UNL1       -0.2027
     16 H         138.5672  136.4875  163.2272 H       1  UNL1        0.1749
     17 C         139.2369  138.5398  160.3527 C.3     1  UNL1        0.1996
     18 S         139.0182  137.9882  161.7305 S.O2    1  UNL1        0.0569
     19 O         137.5928  138.4535  161.6904 O.2     1  UNL1       -0.1544
     20 O         140.4436  137.5230  161.7705 O.2     1  UNL1       -0.1544
     21 C         141.9382  141.9167  166.0331 C.3     1  UNL1        0.0572
     22 C         143.2309  141.6063  165.3383 C.ar    1  UNL1        0.0015
     23 C         143.6057  140.1822  165.0528 C.ar    1  UNL1       -0.0008
     24 C         144.8983  139.8718  164.3580 C.ar    1  UNL1        0.0204
     25 C         145.8161  140.9855  163.9487 C.ar    1  UNL1        0.0989
     26 N         145.4412  142.4095  164.2342 N.ar    1  UNL1       -0.2426
     27 C         144.1486  142.7199  164.9290 C.ar    1  UNL1        0.0949
     28 C         141.9452  142.3685  167.4634 C.ar    1  UNL1        0.0015
     29 C         140.6909  142.9054  168.0866 C.ar    1  UNL1       -0.0008
     30 C         140.6979  143.3572  169.5169 C.ar    1  UNL1        0.0204
     31 C         141.9593  143.2721  170.3241 C.ar    1  UNL1        0.0989
     32 N         143.2138  142.7353  169.7010 N.ar    1  UNL1       -0.2426
     33 C         143.2067  142.2835  168.2706 C.ar    1  UNL1        0.0949
@<TRIPOS>BOND
     1    17    18    1
     2    18    19    2
     3    18    20    2
     4    18    15    1
     5    15     9    1
     6     9    10   ar
     7    10    11   ar
     8    11    12   ar
     9    12    13   ar
    10    13     1    1
    11     1     2    1
    12     2     3   ar
    13     3     4   ar
    14     4     5   ar
    15     5     6    1
    16     5     7   ar
    17     7     8   ar
    18     1    21    1
    19    21    22    1
    20    22    23   ar
    21    23    24   ar
    22    24    25   ar
    23    25    26   ar
    24    26    27   ar
    25    21    28    1
    26    28    29   ar
    27    29    30   ar
    28    30    31   ar
    29    31    32   ar
    30    32    33   ar
    31    13    14   ar
    32    14     9   ar
    33     8     2   ar
    34    27    22   ar
    35    33    28   ar
    36    15    16    1
@<TRIPOS>MOLECULE
*****
 33 36 0 0 0
SMALL
GASTEIGER

@<TRIPOS>ATOM
      1 C         140.9275  141.9452  165.4754 C.3     1  UNL1        0.0707
      2 C         142.3220  141.9007  164.9245 C.ar    1  UNL1       -0.0161
      3 C         143.0423  143.1764  164.6026 C.ar    1  UNL1       -0.0016
      4 C         144.4367  143.1319  164.0516 C.ar    1  UNL1        0.0293
      5 C         145.1108  141.8117  163.8225 C.ar    1  UNL1        0.1401
      6 F         146.5053  141.7672  163.2715 F       1  UNL1       -0.2042
      7 C         144.3905  140.5359  164.1444 C.ar    1  UNL1        0.0293
      8 C         142.9961  140.5804  164.6954 C.ar    1  UNL1       -0.0016
      9 C         138.4450  143.1769  162.6347 C.ar    1  UNL1        0.1463
     10 C         137.7390  144.2961  163.3409 C.ar    1  UNL1        0.0356
     11 C         138.0958  144.6318  164.7587 C.ar    1  UNL1        0.0041
     12 C         139.1586  143.8481  165.4702 C.ar    1  UNL1        0.0152
     13 C         139.8646  142.7289  164.7639 C.ar    1  UNL1        0.0648
     14 N         139.5078  142.3933  163.3462 N.ar    1  UNL1       -0.2334
     15 N         138.0882  142.8413  161.2169 N.pl3   1  UNL1       -0.2027
     16 H         137.1518  142.6562  160.9756 H       1  UNL1        0.1749
     17 C         140.2277  142.7340  159.1167 C.3     1  UNL1        0.1996
     18 S         139.1579  142.7877  160.1669 S.O2    1  UNL1        0.0569
     19 O         138.9589  141.3064  160.0398 O.2     1  UNL1       -0.1544
     20 O         139.3569  144.2689  160.2939 O.2     1  UNL1       -0.1544
     21 C         140.5960  141.2061  166.7379 C.3     1  UNL1        0.0572
     22 C         141.2075  141.6328  168.0395 C.ar    1  UNL1        0.0015
     23 C         140.7321  142.8837  168.7171 C.ar    1  UNL1       -0.0008
     24 C         141.3436  143.3103  170.0186 C.ar    1  UNL1        0.0204
     25 C         142.4305  142.4860  170.6425 C.ar    1  UNL1        0.0989
     26 N         142.9059  141.2351  169.9649 N.ar    1  UNL1       -0.2426
     27 C         142.2944  140.8085  168.6633 C.ar    1  UNL1        0.0949
     28 C         139.6529  140.0403  166.6988 C.ar    1  UNL1        0.0015
     29 C         139.6007  139.1582  165.4867 C.ar    1  UNL1       -0.0008
     30 C         138.6576  137.9924  165.4476 C.ar    1  UNL1        0.0204
     31 C         137.7668  137.7087  166.6206 C.ar    1  UNL1        0.0989
     32 N         137.8190  138.5909  167.8327 N.ar    1  UNL1       -0.2426
     33 C         138.7620  139.7567  167.8718 C.ar    1  UNL1        0.0949
@<TRIPOS>BOND
     1    17    18    1
     2    18    19    2
     3    18    20    2
     4    18    15    1
     5    15     9    1
     6     9    10   ar
     7    10    11   ar
     8    11    12   ar
     9    12    13   ar
    10    13     1    1
    11     1     2    1
    12     2     3   ar
    13     3     4   ar
    14     4     5   ar
    15     5     6    1
    16     5     7   ar
    17     7     8   ar
    18     1    21    1
    19    21    22    1
    20    22    23   ar
    21    23    24   ar
    22    24    25   ar
    23    25    26   ar
    24    26    27   ar
    25    21    28    1
    26    28    29   ar
    27    29    30   ar
    28    30    31   ar
    29    31    32   ar
    30    32    33   ar
    31    13    14   ar
    32    14     9   ar
    33     8     2   ar
    34    27    22   ar
    35    33    28   ar
    36    15    16    1
@<TRIPOS>MOLECULE
*****
 33 36 0 0 0
SMALL
GASTEIGER

@<TRIPOS>ATOM
      1 C         141.3290  141.5135  165.2925 C.3     1  UNL1        0.0707
      2 C         140.2547  142.3786  164.7030 C.ar    1  UNL1       -0.0161
      3 C         139.5387  141.9424  163.4592 C.ar    1  UNL1       -0.0016
      4 C         138.4645  142.8075  162.8696 C.ar    1  UNL1        0.0293
      5 C         138.1062  144.1089  163.5239 C.ar    1  UNL1        0.1401
      6 F         137.0319  144.9740  162.9344 F       1  UNL1       -0.2042
      7 C         138.8222  144.5452  164.7677 C.ar    1  UNL1        0.0293
      8 C         139.8964  143.6800  165.3573 C.ar    1  UNL1       -0.0016
      9 C         144.3890  140.3805  163.0337 C.ar    1  UNL1        0.1463
     10 C         145.4159  141.4061  163.4123 C.ar    1  UNL1        0.0356
     11 C         145.0805  142.4676  164.4177 C.ar    1  UNL1        0.0041
     12 C         143.7182  142.5034  165.0444 C.ar    1  UNL1        0.0152
     13 C         142.6913  141.4777  164.6658 C.ar    1  UNL1        0.0648
     14 N         143.0267  140.4163  163.6604 N.ar    1  UNL1       -0.2334
     15 N         144.7244  139.3190  162.0283 N.pl3   1  UNL1       -0.2027
     16 H         145.5932  138.8578  162.0707 H       1  UNL1        0.1749
     17 C         142.7479  138.6014  159.8885 C.3     1  UNL1        0.1996
     18 S         143.7362  138.9602  160.9585 S.O2    1  UNL1        0.0569
     19 O         143.9748  140.2837  160.2942 O.2     1  UNL1       -0.1544
     20 O         143.4976  137.6367  161.6227 O.2     1  UNL1       -0.1544
     21 C         141.0409  140.6842  166.5087 C.3     1  UNL1        0.0572
     22 C         139.9626  139.6422  166.4678 C.ar    1  UNL1        0.0015
     23 C         139.9381  138.6315  165.3597 C.ar    1  UNL1       -0.0008
     24 C         138.8598  137.5895  165.3189 C.ar    1  UNL1        0.0204
     25 C         137.8062  137.5582  166.3861 C.ar    1  UNL1        0.0989
     26 N         137.8308  138.5689  167.4941 N.ar    1  UNL1       -0.2426
     27 C         138.9090  139.6109  167.5350 C.ar    1  UNL1        0.0949
     28 C         141.8310  140.8968  167.7659 C.ar    1  UNL1        0.0015
     29 C         142.0537  142.2861  168.2858 C.ar    1  UNL1       -0.0008
     30 C         142.8438  142.4987  169.5430 C.ar    1  UNL1        0.0204
     31 C         143.4113  141.3221  170.2802 C.ar    1  UNL1        0.0989
     32 N         143.1887  139.9328  169.7602 N.ar    1  UNL1       -0.2426
     33 C         142.3986  139.7202  168.5031 C.ar    1  UNL1        0.0949
@<TRIPOS>BOND
     1    17    18    1
     2    18    19    2
     3    18    20    2
     4    18    15    1
     5    15     9    1
     6     9    10   ar
     7    10    11   ar
     8    11    12   ar
     9    12    13   ar
    10    13     1    1
    11     1     2    1
    12     2     3   ar
    13     3     4   ar
    14     4     5   ar
    15     5     6    1
    16     5     7   ar
    17     7     8   ar
    18     1    21    1
    19    21    22    1
    20    22    23   ar
    21    23    24   ar
    22    24    25   ar
    23    25    26   ar
    24    26    27   ar
    25    21    28    1
    26    28    29   ar
    27    29    30   ar
    28    30    31   ar
    29    31    32   ar
    30    32    33   ar
    31    13    14   ar
    32    14     9   ar
    33     8     2   ar
    34    27    22   ar
    35    33    28   ar
    36    15    16    1
@<TRIPOS>MOLECULE
*****
 33 36 0 0 0
SMALL
GASTEIGER

@<TRIPOS>ATOM
      1 C         140.9639  141.8682  165.5677 C.3     1  UNL1        0.0707
      2 C         142.3578  141.8399  165.0144 C.ar    1  UNL1       -0.0161
      3 C         143.3136  142.9514  165.3321 C.ar    1  UNL1       -0.0016
      4 C         144.7075  142.9231  164.7788 C.ar    1  UNL1        0.0293
      5 C         145.1457  141.7832  163.9079 C.ar    1  UNL1        0.1401
      6 F         146.5397  141.7549  163.3546 F       1  UNL1       -0.2042
      7 C         144.1900  140.6716  163.5902 C.ar    1  UNL1        0.0293
      8 C         142.7960  140.6999  164.1435 C.ar    1  UNL1       -0.0016
      9 C         138.3854  143.2039  162.8626 C.ar    1  UNL1        0.1463
     10 C         137.8060  144.3854  163.5825 C.ar    1  UNL1        0.0356
     11 C         138.2791  144.7278  164.9641 C.ar    1  UNL1        0.0041
     12 C         139.3318  143.8888  165.6259 C.ar    1  UNL1        0.0152
     13 C         139.9112  142.7073  164.9060 C.ar    1  UNL1        0.0648
     14 N         139.4381  142.3649  163.5244 N.ar    1  UNL1       -0.2334
     15 N         137.9123  142.8615  161.4810 N.pl3   1  UNL1       -0.2027
     16 H         137.2521  143.4361  161.0303 H       1  UNL1        0.1749
     17 C         138.9778  140.4256  160.0913 C.3     1  UNL1        0.1996
     18 S         138.4450  141.6435  160.7862 S.O2    1  UNL1        0.0569
     19 O         139.5386  142.4696  160.1767 O.2     1  UNL1       -0.1544
     20 O         137.3514  140.8175  161.3957 O.2     1  UNL1       -0.1544
     21 C         140.6226  141.0574  166.7827 C.3     1  UNL1        0.0572
     22 C         139.6859  139.8915  166.6675 C.ar    1  UNL1        0.0015
     23 C         139.7813  138.9662  165.4908 C.ar    1  UNL1       -0.0008
     24 C         138.8446  137.8003  165.3757 C.ar    1  UNL1        0.0204
     25 C         137.8125  137.5597  166.4373 C.ar    1  UNL1        0.0989
     26 N         137.7171  138.4850  167.6140 N.ar    1  UNL1       -0.2426
     27 C         138.6538  139.6509  167.7291 C.ar    1  UNL1        0.0949
     28 C         141.2180  141.4126  168.1129 C.ar    1  UNL1        0.0015
     29 C         140.9373  142.7521  168.7266 C.ar    1  UNL1       -0.0008
     30 C         141.5327  143.1073  170.0568 C.ar    1  UNL1        0.0204
     31 C         142.4088  142.1229  170.7733 C.ar    1  UNL1        0.0989
     32 N         142.6895  140.7832  170.1595 N.ar    1  UNL1       -0.2426
     33 C         142.0941  140.4281  168.8293 C.ar    1  UNL1        0.0949
@<TRIPOS>BOND
     1    17    18    1
     2    18    19    2
     3    18    20    2
     4    18    15    1
     5    15     9    1
     6     9    10   ar
     7    10    11   ar
     8    11    12   ar
     9    12    13   ar
    10    13     1    1
    11     1     2    1
    12     2     3   ar
    13     3     4   ar
    14     4     5   ar
    15     5     6    1
    16     5     7   ar
    17     7     8   ar
    18     1    21    1
    19    21    22    1
    20    22    23   ar
    21    23    24   ar
    22    24    25   ar
    23    25    26   ar
    24    26    27   ar
    25    21    28    1
    26    28    29   ar
    27    29    30   ar
    28    30    31   ar
    29    31    32   ar
    30    32    33   ar
    31    13    14   ar
    32    14     9   ar
    33     8     2   ar
    34    27    22   ar
    35    33    28   ar
    36    15    16    1
