@<TRIPOS>MOLECULE
*****
 33 35 0 0 0
SMALL
GASTEIGER

@<TRIPOS>ATOM
      1 C         141.1645  138.7757  160.0411 C.3     1  UNL1        0.1165
      2 N         141.3114  139.5181  161.3361 N.am    1  UNL1       -0.2605
      3 C         141.8947  140.9001  161.3464 C.3     1  UNL1        0.1165
      4 C         140.8750  138.8787  162.6209 C.2     1  UNL1        0.3079
      5 O         140.2917  137.4968  162.6107 O.2     1  UNL1       -0.2523
      6 N         141.0219  139.6211  163.9160 N.am    1  UNL1       -0.2562
      7 C         140.6320  139.1134  165.2725 C.3     1  UNL1        0.1220
      8 C         140.9536  140.1801  166.2768 C.2     1  UNL1       -0.0024
      9 C         141.5423  141.3472  165.5410 C.2     1  UNL1       -0.0069
     10 C         141.5845  141.0017  164.0819 C.3     1  UNL1        0.0995
     11 C         140.7264  140.0948  167.7571 C.ar    1  UNL1        0.0271
     12 C         139.3392  140.2279  168.3118 C.ar    1  UNL1        0.0316
     13 C         139.1120  140.1425  169.7920 C.ar    1  UNL1        0.1403
     14 F         137.7247  140.2756  170.3469 F       1  UNL1       -0.2042
     15 C         140.2721  139.9241  170.7175 C.ar    1  UNL1        0.0319
     16 C         141.6594  139.7910  170.1627 C.ar    1  UNL1        0.0319
     17 C         141.8865  139.8763  168.6825 C.ar    1  UNL1        0.1400
     18 F         143.2738  139.7433  168.1277 F       1  UNL1       -0.2042
     19 C         142.1821  142.3698  163.9364 C.ar    1  UNL1       -0.0022
     20 C         143.4520  142.7141  164.6568 C.ar    1  UNL1       -0.0024
     21 C         144.0495  144.0822  164.5113 C.ar    1  UNL1       -0.0003
     22 C         143.3772  145.1061  163.6455 C.ar    1  UNL1       -0.0000
     23 C         142.1074  144.7618  162.9252 C.ar    1  UNL1       -0.0003
     24 C         141.5097  143.3937  163.0706 C.ar    1  UNL1       -0.0024
     25 C         141.7516  140.9422  162.5924 C.3     1  UNL1        0.0283
     26 C         143.1247  140.9801  161.9897 C.3     1  UNL1        0.0236
     27 C         144.1306  139.9267  162.3484 C.3     1  UNL1        0.1185
     28 N         144.5107  138.8797  161.3439 N.3     1  UNL1       -0.3177
     29 H         143.9929  139.0346  160.4788 H       1  UNL1        0.1190
     30 H         144.2861  137.9561  161.7139 H       1  UNL1        0.1190
     31 C         144.7564  139.9205  163.7116 C.3     1  UNL1        0.3323
     32 F         144.1857  139.0540  164.7948 F       1  UNL1       -0.1969
     33 F         145.9529  140.7807  163.9916 F       1  UNL1       -0.1969
@<TRIPOS>BOND
     1     1     2    1
     2     2     3    1
     3     2     4   am
     4     4     5    2
     5     4     6   am
     6     6     7    1
     7     7     8    1
     8     8    11    1
     9    11    12   ar
    10    12    13   ar
    11    13    14    1
    12    13    15   ar
    13    15    16   ar
    14    16    17   ar
    15    17    18    1
    16     8     9    2
    17     9    10    1
    18    10    25    1
    19    25    26    1
    20    26    27    1
    21    27    28    1
    22    27    31    1
    23    31    32    1
    24    31    33    1
    25    10    19    1
    26    19    20   ar
    27    20    21   ar
    28    21    22   ar
    29    22    23   ar
    30    23    24   ar
    31    10     6    1
    32    24    19   ar
    33    17    11   ar
    34    28    29    1
    35    28    30    1
@<TRIPOS>MOLECULE
*****
 33 35 0 0 0
SMALL
GASTEIGER

@<TRIPOS>ATOM
      1 C         138.9635  139.6248  160.6528 C.3     1  UNL1        0.1165
      2 N         139.7696  140.1002  161.8251 N.am    1  UNL1       -0.2605
      3 C         141.2375  140.3657  161.6677 C.3     1  UNL1        0.1165
      4 C         139.1077  140.3102  163.1547 C.2     1  UNL1        0.3079
      5 O         137.6398  140.0447  163.3121 O.2     1  UNL1       -0.2523
      6 N         139.9138  140.7856  164.3270 N.am    1  UNL1       -0.2562
      7 C         139.3929  141.0391  165.7106 C.3     1  UNL1        0.1220
      8 C         140.5395  141.5012  166.5602 C.2     1  UNL1       -0.0024
      9 C         141.7691  141.5332  165.7017 C.2     1  UNL1       -0.0069
     10 C         141.3825  141.0910  164.3215 C.3     1  UNL1        0.0995
     11 C         140.4689  141.8670  168.0132 C.ar    1  UNL1        0.0271
     12 C         140.4040  143.3089  168.4213 C.ar    1  UNL1        0.0316
     13 C         140.3334  143.6747  169.8743 C.ar    1  UNL1        0.1403
     14 F         140.2685  145.1167  170.2825 F       1  UNL1       -0.2042
     15 C         140.3277  142.5985  170.9192 C.ar    1  UNL1        0.0319
     16 C         140.3926  141.1565  170.5111 C.ar    1  UNL1        0.0319
     17 C         140.4632  140.7908  169.0581 C.ar    1  UNL1        0.1400
     18 F         140.5281  139.3488  168.6499 F       1  UNL1       -0.2042
     19 C         142.8336  141.3136  164.0140 C.ar    1  UNL1       -0.0022
     20 C         143.2505  142.4789  163.1665 C.ar    1  UNL1       -0.0024
     21 C         144.7017  142.7016  162.8590 C.ar    1  UNL1       -0.0003
     22 C         145.7359  141.7588  163.3990 C.ar    1  UNL1       -0.0000
     23 C         145.3191  140.5936  164.2464 C.ar    1  UNL1       -0.0003
     24 C         143.8679  140.3709  164.5539 C.ar    1  UNL1       -0.0024
     25 C         141.2991  140.6953  162.8770 C.3     1  UNL1        0.0283
     26 C         142.1983  139.6211  162.3406 C.3     1  UNL1        0.0236
     27 C         141.8945  138.1792  162.6213 C.3     1  UNL1        0.1185
     28 N         142.0589  137.1538  161.5391 N.3     1  UNL1       -0.3177
     29 H         142.3819  137.6091  160.6854 H       1  UNL1        0.1190
     30 H         141.1634  136.6982  161.3635 H       1  UNL1        0.1190
     31 C         141.4263  137.7629  163.9842 C.3     1  UNL1        0.3323
     32 F         139.9953  137.3673  164.1972 F       1  UNL1       -0.1969
     33 F         142.3893  137.7422  165.1341 F       1  UNL1       -0.1969
@<TRIPOS>BOND
     1     1     2    1
     2     2     3    1
     3     2     4   am
     4     4     5    2
     5     4     6   am
     6     6     7    1
     7     7     8    1
     8     8    11    1
     9    11    12   ar
    10    12    13   ar
    11    13    14    1
    12    13    15   ar
    13    15    16   ar
    14    16    17   ar
    15    17    18    1
    16     8     9    2
    17     9    10    1
    18    10    25    1
    19    25    26    1
    20    26    27    1
    21    27    28    1
    22    27    31    1
    23    31    32    1
    24    31    33    1
    25    10    19    1
    26    19    20   ar
    27    20    21   ar
    28    21    22   ar
    29    22    23   ar
    30    23    24   ar
    31    10     6    1
    32    24    19   ar
    33    17    11   ar
    34    28    29    1
    35    28    30    1
@<TRIPOS>MOLECULE
*****
 33 35 0 0 0
SMALL
GASTEIGER

@<TRIPOS>ATOM
      1 C         144.7612  142.4479  161.3139 C.3     1  UNL1        0.1165
      2 N         143.6747  142.2525  162.3294 N.am    1  UNL1       -0.2605
      3 C         142.2608  142.0280  161.8814 C.3     1  UNL1        0.1165
      4 C         144.0020  142.2815  163.7930 C.2     1  UNL1        0.3079
      5 O         145.4158  142.5060  164.2410 O.2     1  UNL1       -0.2523
      6 N         142.9155  142.0861  164.8085 N.am    1  UNL1       -0.2562
      7 C         143.0901  142.0896  166.2983 C.3     1  UNL1        0.1220
      8 C         141.7461  141.8585  166.9231 C.2     1  UNL1       -0.0024
      9 C         140.7409  141.7121  165.8195 C.2     1  UNL1       -0.0069
     10 C         141.4636  141.8528  164.5126 C.3     1  UNL1        0.0995
     11 C         141.4580  141.7864  168.3935 C.ar    1  UNL1        0.0271
     12 C         140.4917  142.7497  169.0165 C.ar    1  UNL1        0.0316
     13 C         140.2037  142.6776  170.4868 C.ar    1  UNL1        0.1403
     14 F         139.2373  143.6410  171.1099 F       1  UNL1       -0.2042
     15 C         140.8819  141.6422  171.3340 C.ar    1  UNL1        0.0319
     16 C         141.8483  140.6789  170.7110 C.ar    1  UNL1        0.0319
     17 C         142.1363  140.7510  169.2407 C.ar    1  UNL1        0.1400
     18 F         143.1027  139.7877  168.6176 F       1  UNL1       -0.2042
     19 C         140.1033  141.6396  163.9174 C.ar    1  UNL1       -0.0022
     20 C         139.8195  140.4016  163.1194 C.ar    1  UNL1       -0.0024
     21 C         138.4592  140.1884  162.5242 C.ar    1  UNL1       -0.0003
     22 C         137.3828  141.2132  162.7270 C.ar    1  UNL1       -0.0000
     23 C         137.6666  142.4511  163.5250 C.ar    1  UNL1       -0.0003
     24 C         139.0269  142.6644  164.1202 C.ar    1  UNL1       -0.0024
     25 C         141.9019  141.9489  163.0813 C.3     1  UNL1        0.0283
     26 C         141.2482  142.9371  162.1615 C.3     1  UNL1        0.0236
     27 C         141.6307  144.3862  162.2234 C.3     1  UNL1        0.1185
     28 N         141.9128  145.1421  160.9589 N.3     1  UNL1       -0.3177
     29 H         141.7980  144.5204  160.1584 H       1  UNL1        0.1190
     30 H         142.8693  145.4957  160.9803 H       1  UNL1        0.1190
     31 C         141.7311  145.0794  163.5498 C.3     1  UNL1        0.3323
     32 F         143.0707  145.5025  164.0754 F       1  UNL1       -0.1969
     33 F         140.4919  145.3496  164.3506 F       1  UNL1       -0.1969
@<TRIPOS>BOND
     1     1     2    1
     2     2     3    1
     3     2     4   am
     4     4     5    2
     5     4     6   am
     6     6     7    1
     7     7     8    1
     8     8    11    1
     9    11    12   ar
    10    12    13   ar
    11    13    14    1
    12    13    15   ar
    13    15    16   ar
    14    16    17   ar
    15    17    18    1
    16     8     9    2
    17     9    10    1
    18    10    25    1
    19    25    26    1
    20    26    27    1
    21    27    28    1
    22    27    31    1
    23    31    32    1
    24    31    33    1
    25    10    19    1
    26    19    20   ar
    27    20    21   ar
    28    21    22   ar
    29    22    23   ar
    30    23    24   ar
    31    10     6    1
    32    24    19   ar
    33    17    11   ar
    34    28    29    1
    35    28    30    1
@<TRIPOS>MOLECULE
*****
 33 35 0 0 0
SMALL
GASTEIGER

@<TRIPOS>ATOM
      1 C         143.9031  142.0451  159.8385 C.3     1  UNL1        0.1165
      2 N         143.1669  142.1160  161.1434 N.am    1  UNL1       -0.2605
      3 C         141.7697  142.6603  161.1877 C.3     1  UNL1        0.1165
      4 C         143.8277  141.6426  162.4041 C.2     1  UNL1        0.3079
      5 O         145.2247  141.0983  162.3598 O.2     1  UNL1       -0.2523
      6 N         143.0914  141.7135  163.7090 N.am    1  UNL1       -0.2562
      7 C         143.6198  141.2799  165.0442 C.3     1  UNL1        0.1220
      8 C         142.5524  141.5289  166.0683 C.2     1  UNL1       -0.0024
      9 C         141.3643  142.1165  165.3660 C.2     1  UNL1       -0.0069
     10 C         141.6974  142.2306  163.9079 C.3     1  UNL1        0.0995
     11 C         142.6551  141.2409  167.5368 C.ar    1  UNL1        0.0271
     12 C         142.8888  142.3614  168.5063 C.ar    1  UNL1        0.0316
     13 C         142.9915  142.0734  169.9747 C.ar    1  UNL1        0.1403
     14 F         143.2251  143.1939  170.9443 F       1  UNL1       -0.2042
     15 C         142.8606  140.6649  170.4737 C.ar    1  UNL1        0.0319
     16 C         142.6269  139.5444  169.5043 C.ar    1  UNL1        0.0319
     17 C         142.5242  139.8324  168.0358 C.ar    1  UNL1        0.1400
     18 F         142.2905  138.7119  167.0663 F       1  UNL1       -0.2042
     19 C         140.3125  142.7961  163.7971 C.ar    1  UNL1       -0.0022
     20 C         139.3991  142.3340  162.7007 C.ar    1  UNL1       -0.0024
     21 C         138.0143  142.8996  162.5898 C.ar    1  UNL1       -0.0003
     22 C         137.5428  143.9273  163.5755 C.ar    1  UNL1       -0.0000
     23 C         138.4561  144.3895  164.6718 C.ar    1  UNL1       -0.0003
     24 C         139.8411  143.8239  164.7827 C.ar    1  UNL1       -0.0024
     25 C         141.7410  142.4629  162.4266 C.3     1  UNL1        0.0283
     26 C         141.8338  143.8602  161.8891 C.3     1  UNL1        0.0236
     27 C         142.2918  144.9774  162.7792 C.3     1  UNL1        0.1185
     28 N         141.3341  146.0618  163.1747 N.3     1  UNL1       -0.3177
     29 H         140.4234  145.8820  162.7518 H       1  UNL1        0.1190
     30 H         141.6874  146.9622  162.8510 H       1  UNL1        0.1190
     31 C         143.7076  145.0100  163.2737 C.3     1  UNL1        0.3323
     32 F         144.8242  144.5543  162.3820 F       1  UNL1       -0.1969
     33 F         144.0067  145.4984  164.6601 F       1  UNL1       -0.1969
@<TRIPOS>BOND
     1     1     2    1
     2     2     3    1
     3     2     4   am
     4     4     5    2
     5     4     6   am
     6     6     7    1
     7     7     8    1
     8     8    11    1
     9    11    12   ar
    10    12    13   ar
    11    13    14    1
    12    13    15   ar
    13    15    16   ar
    14    16    17   ar
    15    17    18    1
    16     8     9    2
    17     9    10    1
    18    10    25    1
    19    25    26    1
    20    26    27    1
    21    27    28    1
    22    27    31    1
    23    31    32    1
    24    31    33    1
    25    10    19    1
    26    19    20   ar
    27    20    21   ar
    28    21    22   ar
    29    22    23   ar
    30    23    24   ar
    31    10     6    1
    32    24    19   ar
    33    17    11   ar
    34    28    29    1
    35    28    30    1
@<TRIPOS>MOLECULE
*****
 33 35 0 0 0
SMALL
GASTEIGER

@<TRIPOS>ATOM
      1 C         138.7517  139.7483  160.7852 C.3     1  UNL1        0.1165
      2 N         139.5284  140.3603  161.9131 N.am    1  UNL1       -0.2605
      3 C         140.4405  141.5223  161.6520 C.3     1  UNL1        0.1165
      4 C         139.3931  139.8105  163.3021 C.2     1  UNL1        0.3079
      5 O         138.4811  138.6486  163.5633 O.2     1  UNL1       -0.2523
      6 N         140.1698  140.4225  164.4300 N.am    1  UNL1       -0.2562
      7 C         140.1371  139.9828  165.8637 C.3     1  UNL1        0.1220
      8 C         141.0627  140.8703  166.6420 C.2     1  UNL1       -0.0024
      9 C         141.6674  141.8586  165.6893 C.2     1  UNL1       -0.0069
     10 C         141.1156  141.5819  164.3222 C.3     1  UNL1        0.0995
     11 C         141.3356  140.7845  168.1145 C.ar    1  UNL1        0.0271
     12 C         140.6278  141.7057  169.0634 C.ar    1  UNL1        0.0316
     13 C         140.9008  141.6199  170.5358 C.ar    1  UNL1        0.1403
     14 F         140.1930  142.5412  171.4847 F       1  UNL1       -0.2042
     15 C         141.8816  140.6130  171.0594 C.ar    1  UNL1        0.0319
     16 C         142.5894  139.6918  170.1105 C.ar    1  UNL1        0.0319
     17 C         142.3164  139.7776  168.6381 C.ar    1  UNL1        0.1400
     18 F         143.0242  138.8564  167.6891 F       1  UNL1       -0.2042
     19 C         141.9839  142.7336  163.9106 C.ar    1  UNL1       -0.0022
     20 C         143.2117  142.4894  163.0843 C.ar    1  UNL1       -0.0024
     21 C         144.0800  143.6412  162.6726 C.ar    1  UNL1       -0.0003
     22 C         143.7205  145.0371  163.0873 C.ar    1  UNL1       -0.0000
     23 C         142.4928  145.2814  163.9136 C.ar    1  UNL1       -0.0003
     24 C         141.6244  144.1296  164.3253 C.ar    1  UNL1       -0.0024
     25 C         140.7452  141.5459  162.8691 C.3     1  UNL1        0.0283
     26 C         140.1479  142.7576  162.2172 C.3     1  UNL1        0.0236
     27 C         138.7214  143.1310  162.4927 C.3     1  UNL1        0.1185
     28 N         137.7418  143.2361  161.3616 N.3     1  UNL1       -0.3177
     29 H         138.2132  143.0223  160.4827 H       1  UNL1        0.1190
     30 H         137.3660  144.1836  161.3242 H       1  UNL1        0.1190
     31 C         138.2745  143.3994  163.8992 C.3     1  UNL1        0.3323
     32 F         138.4194  144.7735  164.4828 F       1  UNL1       -0.1969
     33 F         137.6828  142.2936  164.7220 F       1  UNL1       -0.1969
@<TRIPOS>BOND
     1     1     2    1
     2     2     3    1
     3     2     4   am
     4     4     5    2
     5     4     6   am
     6     6     7    1
     7     7     8    1
     8     8    11    1
     9    11    12   ar
    10    12    13   ar
    11    13    14    1
    12    13    15   ar
    13    15    16   ar
    14    16    17   ar
    15    17    18    1
    16     8     9    2
    17     9    10    1
    18    10    25    1
    19    25    26    1
    20    26    27    1
    21    27    28    1
    22    27    31    1
    23    31    32    1
    24    31    33    1
    25    10    19    1
    26    19    20   ar
    27    20    21   ar
    28    21    22   ar
    29    22    23   ar
    30    23    24   ar
    31    10     6    1
    32    24    19   ar
    33    17    11   ar
    34    28    29    1
    35    28    30    1
@<TRIPOS>MOLECULE
*****
 33 35 0 0 0
SMALL
GASTEIGER

@<TRIPOS>ATOM
      1 C         138.5557  142.5606  160.2215 C.3     1  UNL1        0.1165
      2 N         139.4329  142.3426  161.4185 N.am    1  UNL1       -0.2605
      3 C         140.9203  142.2442  161.2506 C.3     1  UNL1        0.1165
      4 C         138.8227  142.2231  162.7836 C.2     1  UNL1        0.3079
      5 O         137.3354  142.3215  162.9517 O.2     1  UNL1       -0.2523
      6 N         139.6999  142.0051  163.9807 N.am    1  UNL1       -0.2562
      7 C         139.2359  141.8671  165.4004 C.3     1  UNL1        0.1220
      8 C         140.4443  141.6636  166.2654 C.2     1  UNL1       -0.0024
      9 C         141.6553  141.6758  165.3803 C.2     1  UNL1       -0.0069
     10 C         141.1952  141.8869  163.9683 C.3     1  UNL1        0.0995
     11 C         140.4422  141.4801  167.7542 C.ar    1  UNL1        0.0271
     12 C         141.3240  142.3338  168.6164 C.ar    1  UNL1        0.0316
     13 C         141.3218  142.1503  170.1051 C.ar    1  UNL1        0.1403
     14 F         142.2037  143.0041  170.9674 F       1  UNL1       -0.2042
     15 C         140.4378  141.1130  170.7316 C.ar    1  UNL1        0.0319
     16 C         139.5559  140.2592  169.8694 C.ar    1  UNL1        0.0319
     17 C         139.5581  140.4428  168.3807 C.ar    1  UNL1        0.1400
     18 F         138.6763  139.5890  167.5185 F       1  UNL1       -0.2042
     19 C         142.6583  141.8093  163.6466 C.ar    1  UNL1       -0.0022
     20 C         143.1750  140.7123  162.7637 C.ar    1  UNL1       -0.0024
     21 C         144.6380  140.6348  162.4420 C.ar    1  UNL1       -0.0003
     22 C         145.5844  141.6543  163.0032 C.ar    1  UNL1       -0.0000
     23 C         145.0677  142.7513  163.8861 C.ar    1  UNL1       -0.0003
     24 C         143.6046  142.8289  164.2078 C.ar    1  UNL1       -0.0024
     25 C         141.0410  142.0817  162.4891 C.3     1  UNL1        0.0283
     26 C         141.8613  143.1180  161.7796 C.3     1  UNL1        0.0236
     27 C         141.4600  144.5622  161.8393 C.3     1  UNL1        0.1185
     28 N         141.4624  145.3934  160.5908 N.3     1  UNL1       -0.3177
     29 H         141.7608  144.8205  159.8015 H       1  UNL1        0.1190
     30 H         142.1058  146.1766  160.7050 H       1  UNL1        0.1190
     31 C         141.0565  145.1750  163.1476 C.3     1  UNL1        0.3323
     32 F         142.1041  145.6894  164.0897 F       1  UNL1       -0.1969
     33 F         139.6052  145.2734  163.5137 F       1  UNL1       -0.1969
@<TRIPOS>BOND
     1     1     2    1
     2     2     3    1
     3     2     4   am
     4     4     5    2
     5     4     6   am
     6     6     7    1
     7     7     8    1
     8     8    11    1
     9    11    12   ar
    10    12    13   ar
    11    13    14    1
    12    13    15   ar
    13    15    16   ar
    14    16    17   ar
    15    17    18    1
    16     8     9    2
    17     9    10    1
    18    10    25    1
    19    25    26    1
    20    26    27    1
    21    27    28    1
    22    27    31    1
    23    31    32    1
    24    31    33    1
    25    10    19    1
    26    19    20   ar
    27    20    21   ar
    28    21    22   ar
    29    22    23   ar
    30    23    24   ar
    31    10     6    1
    32    24    19   ar
    33    17    11   ar
    34    28    29    1
    35    28    30    1
@<TRIPOS>MOLECULE
*****
 33 35 0 0 0
SMALL
GASTEIGER

@<TRIPOS>ATOM
      1 C         144.0871  139.9378  160.9633 C.3     1  UNL1        0.1165
      2 N         143.1811  140.4679  162.0348 N.am    1  UNL1       -0.2605
      3 C         142.1588  141.5143  161.7027 C.3     1  UNL1        0.1165
      4 C         143.2972  139.9517  163.4384 C.2     1  UNL1        0.3079
      5 O         144.3194  138.9054  163.7705 O.2     1  UNL1       -0.2523
      6 N         142.3912  140.4818  164.5098 N.am    1  UNL1       -0.2562
      7 C         142.3903  140.0636  165.9503 C.3     1  UNL1        0.1220
      8 C         141.3255  140.8466  166.6597 C.2     1  UNL1       -0.0024
      9 C         140.6683  141.7487  165.6576 C.2     1  UNL1       -0.0069
     10 C         141.3269  141.5233  164.3289 C.3     1  UNL1        0.0995
     11 C         140.9788  140.7452  168.1156 C.ar    1  UNL1        0.0271
     12 C         139.5874  140.3687  168.5308 C.ar    1  UNL1        0.0316
     13 C         139.2408  140.2673  169.9866 C.ar    1  UNL1        0.1403
     14 F         137.8494  139.8908  170.4019 F       1  UNL1       -0.2042
     15 C         140.2855  140.5424  171.0273 C.ar    1  UNL1        0.0319
     16 C         141.6768  140.9189  170.6121 C.ar    1  UNL1        0.0319
     17 C         142.0235  141.0203  169.1563 C.ar    1  UNL1        0.1400
     18 F         143.4148  141.3968  168.7410 F       1  UNL1       -0.2042
     19 C         140.3580  142.5631  163.8493 C.ar    1  UNL1       -0.0022
     20 C         140.4225  143.9579  164.3971 C.ar    1  UNL1       -0.0024
     21 C         139.4536  144.9977  163.9175 C.ar    1  UNL1       -0.0003
     22 C         138.4201  144.6426  162.8899 C.ar    1  UNL1       -0.0000
     23 C         138.3556  143.2478  162.3420 C.ar    1  UNL1       -0.0003
     24 C         139.3245  142.2079  162.8217 C.ar    1  UNL1       -0.0024
     25 C         141.7829  141.5153  162.9000 C.3     1  UNL1        0.0283
     26 C         142.3408  142.7639  162.2837 C.3     1  UNL1        0.0236
     27 C         143.6413  143.3267  162.7757 C.3     1  UNL1        0.1185
     28 N         144.8466  143.3206  161.8829 N.3     1  UNL1       -0.3177
     29 H         144.6032  142.9004  160.9859 H       1  UNL1        0.1190
     30 H         145.5916  142.7790  162.3210 H       1  UNL1        0.1190
     31 C         143.7365  143.8954  164.1603 C.3     1  UNL1        0.3323
     32 F         144.0994  143.0068  165.3129 F       1  UNL1       -0.1969
     33 F         143.4689  145.3530  164.3925 F       1  UNL1       -0.1969
@<TRIPOS>BOND
     1     1     2    1
     2     2     3    1
     3     2     4   am
     4     4     5    2
     5     4     6   am
     6     6     7    1
     7     7     8    1
     8     8    11    1
     9    11    12   ar
    10    12    13   ar
    11    13    14    1
    12    13    15   ar
    13    15    16   ar
    14    16    17   ar
    15    17    18    1
    16     8     9    2
    17     9    10    1
    18    10    25    1
    19    25    26    1
    20    26    27    1
    21    27    28    1
    22    27    31    1
    23    31    32    1
    24    31    33    1
    25    10    19    1
    26    19    20   ar
    27    20    21   ar
    28    21    22   ar
    29    22    23   ar
    30    23    24   ar
    31    10     6    1
    32    24    19   ar
    33    17    11   ar
    34    28    29    1
    35    28    30    1
@<TRIPOS>MOLECULE
*****
 33 35 0 0 0
SMALL
GASTEIGER

@<TRIPOS>ATOM
      1 C         137.9541  138.0300  162.0683 C.3     1  UNL1        0.1165
      2 N         138.5081  139.1323  162.9216 N.am    1  UNL1       -0.2605
      3 C         138.5729  140.5330  162.3885 C.3     1  UNL1        0.1165
      4 C         138.9971  138.8340  164.3079 C.2     1  UNL1        0.3079
      5 O         138.9323  137.4334  164.8410 O.2     1  UNL1       -0.2523
      6 N         139.5511  139.9363  165.1612 N.am    1  UNL1       -0.2562
      7 C         140.0748  139.7907  166.5592 C.3     1  UNL1        0.1220
      8 C         140.5259  141.1422  167.0283 C.2     1  UNL1       -0.0024
      9 C         140.2810  142.1231  165.9202 C.2     1  UNL1       -0.0069
     10 C         139.6785  141.3778  164.7662 C.3     1  UNL1        0.0995
     11 C         141.1180  141.4575  168.3700 C.ar    1  UNL1        0.0271
     12 C         142.5401  141.9237  168.4714 C.ar    1  UNL1        0.0316
     13 C         143.1321  142.2389  169.8130 C.ar    1  UNL1        0.1403
     14 F         144.5542  142.7052  169.9145 F       1  UNL1       -0.2042
     15 C         142.3021  142.0879  171.0533 C.ar    1  UNL1        0.0319
     16 C         140.8801  141.6216  170.9519 C.ar    1  UNL1        0.0319
     17 C         140.2880  141.3064  169.6103 C.ar    1  UNL1        0.1400
     18 F         138.8659  140.8401  169.5088 F       1  UNL1       -0.2042
     19 C         139.6801  142.7222  164.1010 C.ar    1  UNL1       -0.0022
     20 C         140.9758  143.4389  163.8612 C.ar    1  UNL1       -0.0024
     21 C         140.9774  144.7833  163.1960 C.ar    1  UNL1       -0.0003
     22 C         139.6832  145.4110  162.7704 C.ar    1  UNL1       -0.0000
     23 C         138.3876  144.6943  163.0101 C.ar    1  UNL1       -0.0003
     24 C         138.3859  143.3499  163.6754 C.ar    1  UNL1       -0.0024
     25 C         139.0764  140.9136  163.4732 C.3     1  UNL1        0.0283
     26 C         139.7960  141.1585  162.1801 C.3     1  UNL1        0.0236
     27 C         140.9973  140.3344  161.8225 C.3     1  UNL1        0.1185
     28 N         141.0403  139.5991  160.5159 N.3     1  UNL1       -0.3177
     29 H         140.1767  139.7703  160.0008 H       1  UNL1        0.1190
     30 H         141.1389  138.5992  160.6915 H       1  UNL1        0.1190
     31 C         142.1555  140.2457  162.7715 C.3     1  UNL1        0.3323
     32 F         142.2728  139.0772  163.7045 F       1  UNL1       -0.1969
     33 F         143.1964  141.3257  162.7876 F       1  UNL1       -0.1969
@<TRIPOS>BOND
     1     1     2    1
     2     2     3    1
     3     2     4   am
     4     4     5    2
     5     4     6   am
     6     6     7    1
     7     7     8    1
     8     8    11    1
     9    11    12   ar
    10    12    13   ar
    11    13    14    1
    12    13    15   ar
    13    15    16   ar
    14    16    17   ar
    15    17    18    1
    16     8     9    2
    17     9    10    1
    18    10    25    1
    19    25    26    1
    20    26    27    1
    21    27    28    1
    22    27    31    1
    23    31    32    1
    24    31    33    1
    25    10    19    1
    26    19    20   ar
    27    20    21   ar
    28    21    22   ar
    29    22    23   ar
    30    23    24   ar
    31    10     6    1
    32    24    19   ar
    33    17    11   ar
    34    28    29    1
    35    28    30    1
@<TRIPOS>MOLECULE
*****
 33 35 0 0 0
SMALL
GASTEIGER

@<TRIPOS>ATOM
      1 C         141.4390  138.6911  160.0133 C.3     1  UNL1        0.1165
      2 N         141.5530  139.4614  161.2953 N.am    1  UNL1       -0.2605
      3 C         141.9606  140.9048  161.2693 C.3     1  UNL1        0.1165
      4 C         141.2595  138.7885  162.6033 C.2     1  UNL1        0.3079
      5 O         140.8519  137.3451  162.6294 O.2     1  UNL1       -0.2523
      6 N         141.3736  139.5588  163.8853 N.am    1  UNL1       -0.2562
      7 C         141.1132  139.0232  165.2620 C.3     1  UNL1        0.1220
      8 C         141.3468  140.1334  166.2432 C.2     1  UNL1       -0.0024
      9 C         141.7515  141.3552  165.4730 C.2     1  UNL1       -0.0069
     10 C         141.7681  141.0002  164.0158 C.3     1  UNL1        0.0995
     11 C         141.2011  140.0384  167.7332 C.ar    1  UNL1        0.0271
     12 C         142.4194  139.9158  168.5995 C.ar    1  UNL1        0.0316
     13 C         142.2737  139.8208  170.0894 C.ar    1  UNL1        0.1403
     14 F         143.4921  139.6982  170.9558 F       1  UNL1       -0.2042
     15 C         140.9097  139.8485  170.7129 C.ar    1  UNL1        0.0319
     16 C         139.6914  139.9711  169.8465 C.ar    1  UNL1        0.0319
     17 C         139.8371  140.0661  168.3567 C.ar    1  UNL1        0.1400
     18 F         138.6188  140.1887  167.4902 F       1  UNL1       -0.2042
     19 C         142.1843  142.4297  163.8335 C.ar    1  UNL1       -0.0022
     20 C         141.3972  143.3305  162.9285 C.ar    1  UNL1       -0.0024
     21 C         141.8134  144.7600  162.7463 C.ar    1  UNL1       -0.0003
     22 C         143.0167  145.2888  163.4691 C.ar    1  UNL1       -0.0000
     23 C         143.8037  144.3881  164.3741 C.ar    1  UNL1       -0.0003
     24 C         143.3876  142.9584  164.5564 C.ar    1  UNL1       -0.0024
     25 C         141.8717  140.9439  162.5204 C.3     1  UNL1        0.0283
     26 C         143.1715  141.2688  161.8459 C.3     1  UNL1        0.0236
     27 C         144.4672  140.8389  162.4678 C.3     1  UNL1        0.1185
     28 N         145.6624  141.7435  162.4118 N.3     1  UNL1       -0.3177
     29 H         145.4166  142.6015  161.9181 H       1  UNL1        0.1190
     30 H         146.4218  141.2734  161.9192 H       1  UNL1        0.1190
     31 C         144.5676  139.5046  163.1456 C.3     1  UNL1        0.3323
     32 F         144.4231  138.2441  162.3454 F       1  UNL1       -0.1969
     33 F         144.8124  139.4306  164.6236 F       1  UNL1       -0.1969
@<TRIPOS>BOND
     1     1     2    1
     2     2     3    1
     3     2     4   am
     4     4     5    2
     5     4     6   am
     6     6     7    1
     7     7     8    1
     8     8    11    1
     9    11    12   ar
    10    12    13   ar
    11    13    14    1
    12    13    15   ar
    13    15    16   ar
    14    16    17   ar
    15    17    18    1
    16     8     9    2
    17     9    10    1
    18    10    25    1
    19    25    26    1
    20    26    27    1
    21    27    28    1
    22    27    31    1
    23    31    32    1
    24    31    33    1
    25    10    19    1
    26    19    20   ar
    27    20    21   ar
    28    21    22   ar
    29    22    23   ar
    30    23    24   ar
    31    10     6    1
    32    24    19   ar
    33    17    11   ar
    34    28    29    1
    35    28    30    1
