@<TRIPOS>MOLECULE
*****
 32 35 0 0 0
SMALL
GASTEIGER

@<TRIPOS>ATOM
      1 C         140.9764  138.4386  156.4337 C.3     1  UNL1        0.1020
      2 C         141.7467  137.5703  155.4837 C.3     1  UNL1        0.0643
      3 C         142.8587  136.7027  155.9942 C.3     1  UNL1        0.1368
      4 C         142.9094  136.3592  154.5349 C.3     1  UNL1        0.0437
      5 C         143.9883  135.7157  155.9979 C.3     1  UNL1        0.0437
      6 O         143.2004  136.7033  157.4547 O.3     1  UNL1       -0.4676
      7 C         142.4301  137.5716  158.4047 C.ar    1  UNL1        0.2219
      8 N         142.7717  137.5724  159.8654 N.ar    1  UNL1       -0.2119
      9 C         142.0014  138.4407  160.8154 C.ar    1  UNL1        0.0851
     10 C         140.8894  139.3083  160.3048 C.ar    1  UNL1        0.0177
     11 C         140.5477  139.3076  158.8443 C.ar    1  UNL1        0.0034
     12 C         141.3181  138.4393  157.8942 C.ar    1  UNL1        0.0488
     13 C         142.3431  138.4414  162.2760 C.ar    1  UNL1        0.0284
     14 C         141.5233  137.6341  163.2384 C.ar    1  UNL1        0.0032
     15 C         141.8650  137.6348  164.6989 C.ar    1  UNL1        0.0115
     16 C         143.0264  138.4429  165.1971 C.ar    1  UNL1        0.0585
     17 CL        143.3680  138.4436  166.6577 Cl      1  UNL1       -0.0822
     18 C         143.8461  139.2502  164.2347 C.ar    1  UNL1        0.0228
     19 C         143.5045  139.2494  162.7742 C.ar    1  UNL1        0.0599
     20 CL        144.3242  140.0568  161.8117 Cl      1  UNL1       -0.0822
     21 C         140.1190  140.1767  161.2549 C.ar    1  UNL1        0.0015
     22 C         138.8089  139.7023  161.8104 C.ar    1  UNL1        0.0009
     23 C         138.0386  140.5705  162.7604 C.ar    1  UNL1        0.0114
     24 C         138.5784  141.9132  163.1550 C.ar    1  UNL1        0.0577
     25 CL        137.8080  142.7816  164.1051 Cl      1  UNL1       -0.0822
     26 C         139.8885  142.3876  162.5996 C.ar    1  UNL1        0.0114
     27 C         140.6588  141.5194  161.6496 C.ar    1  UNL1        0.0009
     28 C         137.4442  139.5586  155.0127 C.3     1  UNL1        0.0946
     29 C         138.5562  138.6910  155.5233 C.2     1  UNL1        0.2232
     30 O         138.3599  137.2079  155.6339 O.2     1  UNL1       -0.2751
     31 N         139.8644  139.3063  155.9231 N.am    1  UNL1       -0.3019
     32 H         139.9932  140.2796  155.8505 H       1  UNL1        0.1497
@<TRIPOS>BOND
     1    28    29    1
     2    29    30    2
     3    29    31   am
     4     1    31    1
     5     1     2    1
     6     2     3    1
     7     3     4    1
     8     3     5    1
     9     3     6    1
    10     6     7    1
    11     7     8   ar
    12     8     9   ar
    13     9    13    1
    14    13    14   ar
    15    14    15   ar
    16    15    16   ar
    17    16    17    1
    18    16    18   ar
    19    18    19   ar
    20    19    20    1
    21     9    10   ar
    22    10    21    1
    23    21    22   ar
    24    22    23   ar
    25    23    24   ar
    26    24    25    1
    27    24    26   ar
    28    26    27   ar
    29    10    11   ar
    30    11    12   ar
    31    12     1    1
    32    12     7   ar
    33    19    13   ar
    34    27    21   ar
    35    31    32    1
@<TRIPOS>MOLECULE
*****
 32 35 0 0 0
SMALL
GASTEIGER

@<TRIPOS>ATOM
      1 C         142.9299  135.4215  155.9988 C.3     1  UNL1        0.1020
      2 C         142.4196  135.0517  154.6376 C.3     1  UNL1        0.0643
      3 C         141.2361  135.7697  154.0598 C.3     1  UNL1        0.1368
      4 C         141.5342  134.8163  152.9408 C.3     1  UNL1        0.0437
      5 C         140.1562  136.1566  153.0933 C.3     1  UNL1        0.0437
      6 O         140.5630  136.8575  154.8431 O.3     1  UNL1       -0.4676
      7 C         141.0733  137.2272  156.2043 C.ar    1  UNL1        0.2219
      8 N         140.4001  138.3150  156.9877 N.ar    1  UNL1       -0.2119
      9 C         140.9104  138.6847  158.3489 C.ar    1  UNL1        0.0851
     10 C         142.0938  137.9667  158.9267 C.ar    1  UNL1        0.0177
     11 C         142.7670  136.8790  158.1434 C.ar    1  UNL1        0.0034
     12 C         142.2567  136.5092  156.7821 C.ar    1  UNL1        0.0488
     13 C         140.2372  139.7725  159.1323 C.ar    1  UNL1        0.0284
     14 C         139.0588  139.4506  160.0027 C.ar    1  UNL1        0.0032
     15 C         138.3857  140.5384  160.7860 C.ar    1  UNL1        0.0115
     16 C         138.8910  141.9480  160.6990 C.ar    1  UNL1        0.0585
     17 CL        138.2179  143.0358  161.4824 Cl      1  UNL1       -0.0822
     18 C         140.0695  142.2699  159.8286 C.ar    1  UNL1        0.0228
     19 C         140.7426  141.1821  159.0452 C.ar    1  UNL1        0.0599
     20 CL        141.9211  141.5039  158.1748 Cl      1  UNL1       -0.0822
     21 C         142.6041  138.3365  160.2880 C.ar    1  UNL1        0.0015
     22 C         141.9695  137.7468  161.5125 C.ar    1  UNL1        0.0009
     23 C         142.4797  138.1165  162.8737 C.ar    1  UNL1        0.0114
     24 C         143.6246  139.0759  163.0104 C.ar    1  UNL1        0.0577
     25 CL        144.1349  139.4457  164.3716 Cl      1  UNL1       -0.0822
     26 C         144.2592  139.6657  161.7858 C.ar    1  UNL1        0.0114
     27 C         143.7490  139.2959  160.4246 C.ar    1  UNL1        0.0009
     28 C         145.1285  132.6175  157.7464 C.3     1  UNL1        0.0946
     29 C         143.9450  133.3355  157.1685 C.2     1  UNL1        0.2232
     30 O         142.5932  132.6855  157.1826 O.2     1  UNL1       -0.2751
     31 N         144.1133  134.7034  156.5767 N.am    1  UNL1       -0.3019
     32 H         145.0005  135.1300  156.5674 H       1  UNL1        0.1497
@<TRIPOS>BOND
     1    28    29    1
     2    29    30    2
     3    29    31   am
     4     1    31    1
     5     1     2    1
     6     2     3    1
     7     3     4    1
     8     3     5    1
     9     3     6    1
    10     6     7    1
    11     7     8   ar
    12     8     9   ar
    13     9    13    1
    14    13    14   ar
    15    14    15   ar
    16    15    16   ar
    17    16    17    1
    18    16    18   ar
    19    18    19   ar
    20    19    20    1
    21     9    10   ar
    22    10    21    1
    23    21    22   ar
    24    22    23   ar
    25    23    24   ar
    26    24    25    1
    27    24    26   ar
    28    26    27   ar
    29    10    11   ar
    30    11    12   ar
    31    12     1    1
    32    12     7   ar
    33    19    13   ar
    34    27    21   ar
    35    31    32    1
@<TRIPOS>MOLECULE
*****
 32 35 0 0 0
SMALL
GASTEIGER

@<TRIPOS>ATOM
      1 C         143.2106  139.3374  157.6519 C.3     1  UNL1        0.1020
      2 C         142.7185  138.6127  156.4343 C.3     1  UNL1        0.0643
      3 C         141.4346  137.8391  156.4896 C.3     1  UNL1        0.1368
      4 C         141.8280  137.5893  155.0639 C.3     1  UNL1        0.0437
      5 C         140.2874  136.9787  156.0498 C.3     1  UNL1        0.0437
      6 O         140.6428  137.7901  157.7626 O.3     1  UNL1       -0.4676
      7 C         141.1349  138.5148  158.9803 C.ar    1  UNL1        0.2219
      8 N         140.3431  138.4658  160.2534 N.ar    1  UNL1       -0.2119
      9 C         140.8351  139.1904  161.4710 C.ar    1  UNL1        0.0851
     10 C         142.1191  139.9641  161.4156 C.ar    1  UNL1        0.0177
     11 C         142.9109  140.0131  160.1426 C.ar    1  UNL1        0.0034
     12 C         142.4188  139.2884  158.9249 C.ar    1  UNL1        0.0488
     13 C         140.0433  139.1415  162.7441 C.ar    1  UNL1        0.0284
     14 C         139.0222  140.2015  163.0335 C.ar    1  UNL1        0.0032
     15 C         138.2305  140.1525  164.3065 C.ar    1  UNL1        0.0115
     16 C         138.4598  139.0435  165.2902 C.ar    1  UNL1        0.0585
     17 CL        137.6680  138.9945  166.5632 Cl      1  UNL1       -0.0822
     18 C         139.4809  137.9835  165.0008 C.ar    1  UNL1        0.0228
     19 C         140.2726  138.0325  163.7277 C.ar    1  UNL1        0.0599
     20 CL        141.2938  136.9725  163.4383 Cl      1  UNL1       -0.0822
     21 C         142.6111  140.6888  162.6334 C.ar    1  UNL1        0.0015
     22 C         143.5568  140.0097  163.5792 C.ar    1  UNL1        0.0009
     23 C         144.0489  140.7343  164.7968 C.ar    1  UNL1        0.0114
     24 C         143.5953  142.1380  165.0687 C.ar    1  UNL1        0.0577
     25 CL        144.0874  142.8626  166.2864 Cl      1  UNL1       -0.0822
     26 C         142.6496  142.8170  164.1229 C.ar    1  UNL1        0.0114
     27 C         142.1575  142.0924  162.9052 C.ar    1  UNL1        0.0009
     28 C         145.7777  142.3057  157.0609 C.3     1  UNL1        0.0946
     29 C         144.4938  141.5320  157.1163 C.2     1  UNL1        0.2232
     30 O         143.2091  142.1795  156.6914 O.2     1  UNL1       -0.2751
     31 N         144.4945  140.1110  157.5965 N.am    1  UNL1       -0.3019
     32 H         145.3377  139.6861  157.8754 H       1  UNL1        0.1497
@<TRIPOS>BOND
     1    28    29    1
     2    29    30    2
     3    29    31   am
     4     1    31    1
     5     1     2    1
     6     2     3    1
     7     3     4    1
     8     3     5    1
     9     3     6    1
    10     6     7    1
    11     7     8   ar
    12     8     9   ar
    13     9    13    1
    14    13    14   ar
    15    14    15   ar
    16    15    16   ar
    17    16    17    1
    18    16    18   ar
    19    18    19   ar
    20    19    20    1
    21     9    10   ar
    22    10    21    1
    23    21    22   ar
    24    22    23   ar
    25    23    24   ar
    26    24    25    1
    27    24    26   ar
    28    26    27   ar
    29    10    11   ar
    30    11    12   ar
    31    12     1    1
    32    12     7   ar
    33    19    13   ar
    34    27    21   ar
    35    31    32    1
@<TRIPOS>MOLECULE
*****
 32 35 0 0 0
SMALL
GASTEIGER

@<TRIPOS>ATOM
      1 C         140.2741  136.7759  156.1170 C.3     1  UNL1        0.1020
      2 C         141.0226  135.7714  155.2920 C.3     1  UNL1        0.0643
      3 C         142.4871  135.5487  155.5280 C.3     1  UNL1        0.1368
      4 C         142.2512  134.5717  154.4146 C.3     1  UNL1        0.0437
      5 C         143.8696  134.9867  155.3773 C.3     1  UNL1        0.0437
      6 O         143.2031  136.3306  156.5891 O.3     1  UNL1       -0.4676
      7 C         142.4546  137.3351  157.4142 C.ar    1  UNL1        0.2219
      8 N         143.1707  138.1169  158.4754 N.ar    1  UNL1       -0.2119
      9 C         142.4222  139.1214  159.3004 C.ar    1  UNL1        0.0851
     10 C         140.9578  139.3441  159.0644 C.ar    1  UNL1        0.0177
     11 C         140.2417  138.5623  158.0033 C.ar    1  UNL1        0.0034
     12 C         140.9902  137.5577  157.1781 C.ar    1  UNL1        0.0488
     13 C         143.1383  139.9033  160.3616 C.ar    1  UNL1        0.0284
     14 C         143.6985  141.2583  160.0454 C.ar    1  UNL1        0.0032
     15 C         144.4145  142.0401  161.1065 C.ar    1  UNL1        0.0115
     16 C         144.5702  141.4669  162.4839 C.ar    1  UNL1        0.0585
     17 CL        145.2862  142.2488  163.5451 Cl      1  UNL1       -0.0822
     18 C         144.0099  140.1120  162.8002 C.ar    1  UNL1        0.0228
     19 C         143.2939  139.3302  161.7390 C.ar    1  UNL1        0.0599
     20 CL        142.7336  137.9751  162.0552 Cl      1  UNL1       -0.0822
     21 C         140.2093  140.3487  159.8895 C.ar    1  UNL1        0.0015
     22 C         140.0588  141.7585  159.4000 C.ar    1  UNL1        0.0009
     23 C         139.3104  142.7631  160.2250 C.ar    1  UNL1        0.0114
     24 C         138.7125  142.3578  161.5396 C.ar    1  UNL1        0.0577
     25 CL        137.9641  143.3623  162.3647 Cl      1  UNL1       -0.0822
     26 C         138.8630  140.9479  162.0291 C.ar    1  UNL1        0.0114
     27 C         139.6114  139.9433  161.2041 C.ar    1  UNL1        0.0009
     28 C         136.8824  137.8984  154.3891 C.3     1  UNL1        0.0946
     29 C         138.3469  137.6757  154.6251 C.2     1  UNL1        0.2232
     30 O         139.3486  138.1302  153.6052 O.2     1  UNL1       -0.2751
     31 N         138.8097  136.9986  155.8810 N.am    1  UNL1       -0.3019
     32 H         138.1522  136.7003  156.5503 H       1  UNL1        0.1497
@<TRIPOS>BOND
     1    28    29    1
     2    29    30    2
     3    29    31   am
     4     1    31    1
     5     1     2    1
     6     2     3    1
     7     3     4    1
     8     3     5    1
     9     3     6    1
    10     6     7    1
    11     7     8   ar
    12     8     9   ar
    13     9    13    1
    14    13    14   ar
    15    14    15   ar
    16    15    16   ar
    17    16    17    1
    18    16    18   ar
    19    18    19   ar
    20    19    20    1
    21     9    10   ar
    22    10    21    1
    23    21    22   ar
    24    22    23   ar
    25    23    24   ar
    26    24    25    1
    27    24    26   ar
    28    26    27   ar
    29    10    11   ar
    30    11    12   ar
    31    12     1    1
    32    12     7   ar
    33    19    13   ar
    34    27    21   ar
    35    31    32    1
@<TRIPOS>MOLECULE
*****
 32 35 0 0 0
SMALL
GASTEIGER

@<TRIPOS>ATOM
      1 C         138.3803  140.9551  164.3875 C.3     1  UNL1        0.1020
      2 C         138.1056  140.0587  165.5583 C.3     1  UNL1        0.0643
      3 C         138.3985  138.5906  165.4639 C.3     1  UNL1        0.1368
      4 C         137.8686  138.6609  166.8654 C.3     1  UNL1        0.0437
      5 C         138.5073  137.1469  165.8562 C.3     1  UNL1        0.0437
      6 O         138.9661  138.0189  164.1986 O.3     1  UNL1       -0.4676
      7 C         139.2408  138.9153  163.0278 C.ar    1  UNL1        0.2219
      8 N         139.8085  138.3437  161.7624 N.ar    1  UNL1       -0.2119
      9 C         140.0832  139.2401  160.5916 C.ar    1  UNL1        0.0851
     10 C         139.7903  140.7082  160.6860 C.ar    1  UNL1        0.0177
     11 C         139.2227  141.2799  161.9513 C.ar    1  UNL1        0.0034
     12 C         138.9479  140.3834  163.1222 C.ar    1  UNL1        0.0488
     13 C         140.6509  138.6685  159.3262 C.ar    1  UNL1        0.0284
     14 C         139.7374  138.2905  158.1981 C.ar    1  UNL1        0.0032
     15 C         140.3051  137.7189  156.9328 C.ar    1  UNL1        0.0115
     16 C         141.7862  137.5253  156.7957 C.ar    1  UNL1        0.0585
     17 CL        142.3539  136.9536  155.5303 Cl      1  UNL1       -0.0822
     18 C         142.6996  137.9033  157.9238 C.ar    1  UNL1        0.0228
     19 C         142.1320  138.4749  159.1891 C.ar    1  UNL1        0.0599
     20 CL        143.0454  138.8529  160.3173 Cl      1  UNL1       -0.0822
     21 C         140.0651  141.6047  159.5151 C.ar    1  UNL1        0.0015
     22 C         138.9610  141.9516  158.5608 C.ar    1  UNL1        0.0009
     23 C         139.2357  142.8479  157.3899 C.ar    1  UNL1        0.0114
     24 C         140.6144  143.3974  157.1734 C.ar    1  UNL1        0.0577
     25 CL        140.8892  144.2939  156.0024 Cl      1  UNL1       -0.0822
     26 C         141.7185  143.0506  158.1276 C.ar    1  UNL1        0.0114
     27 C         141.4438  142.1542  159.2985 C.ar    1  UNL1        0.0009
     28 C         138.8187  144.8250  165.1500 C.3     1  UNL1        0.0946
     29 C         139.1116  143.3569  165.0556 C.2     1  UNL1        0.2232
     30 O         140.4288  142.8226  165.5348 O.2     1  UNL1       -0.2751
     31 N         138.0874  142.4232  164.4819 N.am    1  UNL1       -0.3019
     32 H         137.2229  142.7739  164.1674 H       1  UNL1        0.1497
@<TRIPOS>BOND
     1    28    29    1
     2    29    30    2
     3    29    31   am
     4     1    31    1
     5     1     2    1
     6     2     3    1
     7     3     4    1
     8     3     5    1
     9     3     6    1
    10     6     7    1
    11     7     8   ar
    12     8     9   ar
    13     9    13    1
    14    13    14   ar
    15    14    15   ar
    16    15    16   ar
    17    16    17    1
    18    16    18   ar
    19    18    19   ar
    20    19    20    1
    21     9    10   ar
    22    10    21    1
    23    21    22   ar
    24    22    23   ar
    25    23    24   ar
    26    24    25    1
    27    24    26   ar
    28    26    27   ar
    29    10    11   ar
    30    11    12   ar
    31    12     1    1
    32    12     7   ar
    33    19    13   ar
    34    27    21   ar
    35    31    32    1
@<TRIPOS>MOLECULE
*****
 32 35 0 0 0
SMALL
GASTEIGER

@<TRIPOS>ATOM
      1 C         140.1266  141.3889  156.4601 C.3     1  UNL1        0.1020
      2 C         140.1205  142.3118  155.2777 C.3     1  UNL1        0.0643
      3 C         139.8867  143.7805  155.4738 C.3     1  UNL1        0.1368
      4 C         140.0534  143.7399  153.9836 C.3     1  UNL1        0.0437
      5 C         139.7107  145.2350  155.1522 C.3     1  UNL1        0.0437
      6 O         139.6589  144.3262  156.8522 O.3     1  UNL1       -0.4676
      7 C         139.6649  143.4033  158.0347 C.ar    1  UNL1        0.2219
      8 N         139.4371  143.9490  159.4132 N.ar    1  UNL1       -0.2119
      9 C         139.4431  143.0261  160.5956 C.ar    1  UNL1        0.0851
     10 C         139.6770  141.5574  160.3996 C.ar    1  UNL1        0.0177
     11 C         139.9048  141.0117  159.0211 C.ar    1  UNL1        0.0034
     12 C         139.8987  141.9346  157.8386 C.ar    1  UNL1        0.0488
     13 C         139.2153  143.5718  161.9742 C.ar    1  UNL1        0.0284
     14 C         137.8496  143.5053  162.5909 C.ar    1  UNL1        0.0032
     15 C         137.6218  144.0509  163.9694 C.ar    1  UNL1        0.0115
     16 C         138.7598  144.6632  164.7312 C.ar    1  UNL1        0.0585
     17 CL        138.5319  145.2089  166.1098 Cl      1  UNL1       -0.0822
     18 C         140.1255  144.7297  164.1145 C.ar    1  UNL1        0.0228
     19 C         140.3532  144.1840  162.7360 C.ar    1  UNL1        0.0599
     20 CL        141.7190  144.2505  162.1192 Cl      1  UNL1       -0.0822
     21 C         139.6830  140.6345  161.5821 C.ar    1  UNL1        0.0015
     22 C         140.9248  140.4843  162.4099 C.ar    1  UNL1        0.0009
     23 C         140.9309  139.5615  163.5924 C.ar    1  UNL1        0.0114
     24 C         139.6951  138.7888  163.9470 C.ar    1  UNL1        0.0577
     25 CL        139.7011  137.8659  165.1295 Cl      1  UNL1       -0.0822
     26 C         138.4533  138.9390  163.1192 C.ar    1  UNL1        0.0114
     27 C         138.4472  139.8618  161.9367 C.ar    1  UNL1        0.0009
     28 C         139.4297  137.5256  155.8777 C.3     1  UNL1        0.0946
     29 C         139.1959  138.9943  156.0737 C.2     1  UNL1        0.2232
     30 O         137.7974  139.5368  156.0794 O.2     1  UNL1       -0.2751
     31 N         140.3604  139.9203  156.2641 N.am    1  UNL1       -0.3019
     32 H         141.2782  139.5642  156.2603 H       1  UNL1        0.1497
@<TRIPOS>BOND
     1    28    29    1
     2    29    30    2
     3    29    31   am
     4     1    31    1
     5     1     2    1
     6     2     3    1
     7     3     4    1
     8     3     5    1
     9     3     6    1
    10     6     7    1
    11     7     8   ar
    12     8     9   ar
    13     9    13    1
    14    13    14   ar
    15    14    15   ar
    16    15    16   ar
    17    16    17    1
    18    16    18   ar
    19    18    19   ar
    20    19    20    1
    21     9    10   ar
    22    10    21    1
    23    21    22   ar
    24    22    23   ar
    25    23    24   ar
    26    24    25    1
    27    24    26   ar
    28    26    27   ar
    29    10    11   ar
    30    11    12   ar
    31    12     1    1
    32    12     7   ar
    33    19    13   ar
    34    27    21   ar
    35    31    32    1
@<TRIPOS>MOLECULE
*****
 32 35 0 0 0
SMALL
GASTEIGER

@<TRIPOS>ATOM
      1 C         140.4550  140.5099  157.8611 C.3     1  UNL1        0.1020
      2 C         140.9900  139.5198  156.8696 C.3     1  UNL1        0.0643
      3 C         141.8384  138.3743  157.3367 C.3     1  UNL1        0.1368
      4 C         141.8172  138.0985  155.8625 C.3     1  UNL1        0.0437
      5 C         142.6793  137.1330  157.2918 C.3     1  UNL1        0.0437
      6 O         142.1516  138.2190  158.7954 O.3     1  UNL1       -0.4676
      7 C         141.6166  139.2092  159.7869 C.ar    1  UNL1        0.2219
      8 N         141.9298  139.0539  161.2456 N.ar    1  UNL1       -0.2119
      9 C         141.3947  140.0441  162.2372 C.ar    1  UNL1        0.0851
     10 C         140.5464  141.1896  161.7701 C.ar    1  UNL1        0.0177
     11 C         140.2331  141.3448  160.3114 C.ar    1  UNL1        0.0034
     12 C         140.7682  140.3546  159.3198 C.ar    1  UNL1        0.0488
     13 C         141.7080  139.8888  163.6959 C.ar    1  UNL1        0.0284
     14 C         142.9555  140.4976  164.2641 C.ar    1  UNL1        0.0032
     15 C         143.2687  140.3424  165.7227 C.ar    1  UNL1        0.0115
     16 C         142.3343  139.5782  166.6132 C.ar    1  UNL1        0.0585
     17 CL        142.6476  139.4230  168.0720 Cl      1  UNL1       -0.0822
     18 C         141.0868  138.9694  166.0451 C.ar    1  UNL1        0.0228
     19 C         140.7736  139.1247  164.5865 C.ar    1  UNL1        0.0599
     20 CL        139.5259  138.5158  164.0182 Cl      1  UNL1       -0.0822
     21 C         140.0113  142.1798  162.7617 C.ar    1  UNL1        0.0015
     22 C         140.8421  143.3622  163.1637 C.ar    1  UNL1        0.0009
     23 C         140.3070  144.3524  164.1552 C.ar    1  UNL1        0.0114
     24 C         138.9413  144.1601  164.7448 C.ar    1  UNL1        0.0577
     25 CL        138.4062  145.1503  165.7364 Cl      1  UNL1       -0.0822
     26 C         138.1105  142.9777  164.3428 C.ar    1  UNL1        0.0114
     27 C         138.6455  141.9875  163.3513 C.ar    1  UNL1        0.0009
     28 C         137.2688  142.6454  156.8423 C.3     1  UNL1        0.0946
     29 C         138.1171  141.4999  157.3094 C.2     1  UNL1        0.2232
     30 O         137.4759  140.1989  157.6919 O.2     1  UNL1       -0.2751
     31 N         139.6066  141.6554  157.3940 N.am    1  UNL1       -0.3019
     32 H         140.0275  142.5093  157.1430 H       1  UNL1        0.1497
@<TRIPOS>BOND
     1    28    29    1
     2    29    30    2
     3    29    31   am
     4     1    31    1
     5     1     2    1
     6     2     3    1
     7     3     4    1
     8     3     5    1
     9     3     6    1
    10     6     7    1
    11     7     8   ar
    12     8     9   ar
    13     9    13    1
    14    13    14   ar
    15    14    15   ar
    16    15    16   ar
    17    16    17    1
    18    16    18   ar
    19    18    19   ar
    20    19    20    1
    21     9    10   ar
    22    10    21    1
    23    21    22   ar
    24    22    23   ar
    25    23    24   ar
    26    24    25    1
    27    24    26   ar
    28    26    27   ar
    29    10    11   ar
    30    11    12   ar
    31    12     1    1
    32    12     7   ar
    33    19    13   ar
    34    27    21   ar
    35    31    32    1
@<TRIPOS>MOLECULE
*****
 32 35 0 0 0
SMALL
GASTEIGER

@<TRIPOS>ATOM
      1 C         139.3994  140.0269  156.7226 C.3     1  UNL1        0.1020
      2 C         138.4776  140.3432  155.5823 C.3     1  UNL1        0.0643
      3 C         137.4193  141.3940  155.7426 C.3     1  UNL1        0.1368
      4 C         137.1566  140.9736  154.3269 C.3     1  UNL1        0.0437
      5 C         136.2698  142.2988  155.4113 C.3     1  UNL1        0.0437
      6 O         137.2828  142.1286  157.0433 O.3     1  UNL1       -0.4676
      7 C         138.2045  141.8123  158.1836 C.ar    1  UNL1        0.2219
      8 N         138.0680  142.5469  159.4843 N.ar    1  UNL1       -0.2119
      9 C         138.9898  142.2307  160.6246 C.ar    1  UNL1        0.0851
     10 C         140.0481  141.1798  160.4642 C.ar    1  UNL1        0.0177
     11 C         140.1847  140.4452  159.1636 C.ar    1  UNL1        0.0034
     12 C         139.2629  140.7615  158.0232 C.ar    1  UNL1        0.0488
     13 C         138.8533  142.9653  161.9253 C.ar    1  UNL1        0.0284
     14 C         139.5787  144.2614  162.1343 C.ar    1  UNL1        0.0032
     15 C         139.4421  144.9959  163.4350 C.ar    1  UNL1        0.0115
     16 C         138.5802  144.4343  164.5266 C.ar    1  UNL1        0.0585
     17 CL        138.4437  145.1689  165.8274 Cl      1  UNL1       -0.0822
     18 C         137.8548  143.1381  164.3176 C.ar    1  UNL1        0.0228
     19 C         137.9913  142.4036  163.0169 C.ar    1  UNL1        0.0599
     20 CL        137.2659  141.1074  162.8078 Cl      1  UNL1       -0.0822
     21 C         140.9699  140.8636  161.6046 C.ar    1  UNL1        0.0015
     22 C         142.2250  141.6619  161.7979 C.ar    1  UNL1        0.0009
     23 C         143.1468  141.3457  162.9382 C.ar    1  UNL1        0.0114
     24 C         142.8135  140.2312  163.8851 C.ar    1  UNL1        0.0577
     25 CL        143.7353  139.9150  165.0255 Cl      1  UNL1       -0.0822
     26 C         141.5584  139.4329  163.6918 C.ar    1  UNL1        0.0114
     27 C         140.6366  139.7491  162.5515 C.ar    1  UNL1        0.0009
     28 C         141.1257  136.5043  156.1215 C.3     1  UNL1        0.0946
     29 C         140.0674  137.5552  156.2819 C.2     1  UNL1        0.2232
     30 O         138.6187  137.1850  156.1619 O.2     1  UNL1       -0.2751
     31 N         140.4577  138.9761  156.5622 N.am    1  UNL1       -0.3019
     32 H         141.4085  139.2190  156.6409 H       1  UNL1        0.1497
@<TRIPOS>BOND
     1    28    29    1
     2    29    30    2
     3    29    31   am
     4     1    31    1
     5     1     2    1
     6     2     3    1
     7     3     4    1
     8     3     5    1
     9     3     6    1
    10     6     7    1
    11     7     8   ar
    12     8     9   ar
    13     9    13    1
    14    13    14   ar
    15    14    15   ar
    16    15    16   ar
    17    16    17    1
    18    16    18   ar
    19    18    19   ar
    20    19    20    1
    21     9    10   ar
    22    10    21    1
    23    21    22   ar
    24    22    23   ar
    25    23    24   ar
    26    24    25    1
    27    24    26   ar
    28    26    27   ar
    29    10    11   ar
    30    11    12   ar
    31    12     1    1
    32    12     7   ar
    33    19    13   ar
    34    27    21   ar
    35    31    32    1
@<TRIPOS>MOLECULE
*****
 32 35 0 0 0
SMALL
GASTEIGER

@<TRIPOS>ATOM
      1 C         139.4436  141.3298  156.6593 C.3     1  UNL1        0.1020
      2 C         138.2582  141.3707  155.7412 C.3     1  UNL1        0.0643
      3 C         136.8988  140.9983  156.2544 C.3     1  UNL1        0.1368
      4 C         136.5598  141.3213  154.8294 C.3     1  UNL1        0.0437
      5 C         135.4217  140.7380  156.2726 C.3     1  UNL1        0.0437
      6 O         136.7249  140.5849  157.6858 O.3     1  UNL1       -0.4676
      7 C         137.9103  140.5440  158.6039 C.ar    1  UNL1        0.2219
      8 N         137.7364  140.1306  160.0353 N.ar    1  UNL1       -0.2119
      9 C         138.9219  140.0897  160.9535 C.ar    1  UNL1        0.0851
     10 C         140.2812  140.4621  160.4403 C.ar    1  UNL1        0.0177
     11 C         140.4552  140.8755  159.0089 C.ar    1  UNL1        0.0034
     12 C         139.2697  140.9164  158.0907 C.ar    1  UNL1        0.0488
     13 C         138.7480  139.6763  162.3849 C.ar    1  UNL1        0.0284
     14 C         138.9984  138.2541  162.7906 C.ar    1  UNL1        0.0032
     15 C         138.8245  137.8407  164.2219 C.ar    1  UNL1        0.0115
     16 C         138.4002  138.8496  165.2477 C.ar    1  UNL1        0.0585
     17 CL        138.2263  138.4362  166.6791 Cl      1  UNL1       -0.0822
     18 C         138.1497  140.2718  164.8420 C.ar    1  UNL1        0.0228
     19 C         138.3236  140.6851  163.4107 C.ar    1  UNL1        0.0599
     20 CL        138.0732  142.1074  163.0049 Cl      1  UNL1       -0.0822
     21 C         141.4667  140.4212  161.3585 C.ar    1  UNL1        0.0015
     22 C         142.3232  139.1915  161.4231 C.ar    1  UNL1        0.0009
     23 C         143.5086  139.1505  162.3412 C.ar    1  UNL1        0.0114
     24 C         143.8375  140.3392  163.1948 C.ar    1  UNL1        0.0577
     25 CL        145.0230  140.2983  164.1130 Cl      1  UNL1       -0.0822
     26 C         142.9810  141.5690  163.1302 C.ar    1  UNL1        0.0114
     27 C         141.7956  141.6099  162.2121 C.ar    1  UNL1        0.0009
     28 C         142.6066  143.5072  155.6571 C.3     1  UNL1        0.0946
     29 C         141.2473  143.1348  156.1704 C.2     1  UNL1        0.2232
     30 O         140.3321  144.1949  156.7078 O.2     1  UNL1       -0.2751
     31 N         140.8030  141.7023  156.1461 N.am    1  UNL1       -0.3019
     32 H         141.4036  141.0066  155.7934 H       1  UNL1        0.1497
@<TRIPOS>BOND
     1    28    29    1
     2    29    30    2
     3    29    31   am
     4     1    31    1
     5     1     2    1
     6     2     3    1
     7     3     4    1
     8     3     5    1
     9     3     6    1
    10     6     7    1
    11     7     8   ar
    12     8     9   ar
    13     9    13    1
    14    13    14   ar
    15    14    15   ar
    16    15    16   ar
    17    16    17    1
    18    16    18   ar
    19    18    19   ar
    20    19    20    1
    21     9    10   ar
    22    10    21    1
    23    21    22   ar
    24    22    23   ar
    25    23    24   ar
    26    24    25    1
    27    24    26   ar
    28    26    27   ar
    29    10    11   ar
    30    11    12   ar
    31    12     1    1
    32    12     7   ar
    33    19    13   ar
    34    27    21   ar
    35    31    32    1
