@<TRIPOS>MOLECULE
*****
 27 30 0 0 0
SMALL
GASTEIGER

@<TRIPOS>ATOM
      1 C         138.7627  142.5182  162.0477 C.ar    1  UNL1        0.2228
      2 N         137.7774  141.4451  161.6904 N.ar    1  UNL1       -0.1240
      3 N         137.6087  140.5543  162.8854 N.ar    1  UNL1       -0.1315
      4 C         138.4898  141.0768  163.9812 C.ar    1  UNL1        0.1616
      5 N         139.2030  142.2906  163.4635 N.ar    1  UNL1       -0.2918
      6 C         140.1612  143.0317  164.3481 C.3     1  UNL1        0.1303
      7 C         140.4062  142.5591  165.7505 C.3     1  UNL1        0.1186
      8 N         139.6929  141.3453  166.2682 N.am    1  UNL1       -0.2688
      9 C         139.9379  140.8726  167.6705 C.2     1  UNL1        0.2494
     10 O         139.2247  139.6588  168.1883 O.2     1  UNL1       -0.2699
     11 C         138.7347  140.6041  165.3835 C.3     1  UNL1        0.1343
     12 C         138.0215  139.3903  165.9013 C.3     1  UNL1        0.0298
     13 C         140.8961  141.6138  168.5551 C.ar    1  UNL1        0.0537
     14 C         140.4307  142.8136  169.3257 C.ar    1  UNL1        0.0068
     15 C         141.3889  143.5548  170.2104 C.ar    1  UNL1        0.0298
     16 C         142.8125  143.0961  170.3244 C.ar    1  UNL1        0.1401
     17 F         143.7708  143.8372  171.2090 F       1  UNL1       -0.2042
     18 C         143.2779  141.8963  169.5538 C.ar    1  UNL1        0.0298
     19 C         142.3197  141.1551  168.6692 C.ar    1  UNL1        0.0068
     20 C         140.0723  144.8288  159.2173 C.ar    1  UNL1        0.1805
     21 N         139.8076  145.8260  160.3062 N.ar    1  UNL1       -0.0601
     22 O         139.2848  145.0817  161.4991 O.2     1  UNL1       -0.3295
     23 C         139.2264  143.6247  161.1473 C.ar    1  UNL1        0.2958
     24 N         139.7131  143.4684  159.7371 N.ar    1  UNL1       -0.1885
     25 C         141.9775  145.7174  157.6907 C.3     1  UNL1        0.0081
     26 C         140.6030  145.1379  157.8488 C.3     1  UNL1        0.0621
     27 C         139.7592  144.8676  156.6384 C.3     1  UNL1        0.0081
@<TRIPOS>BOND
     1    25    26    1
     2    26    27    1
     3    26    20    1
     4    20    21   ar
     5    21    22   ar
     6    22    23   ar
     7    23     1    1
     8     1     2   ar
     9     2     3   ar
    10     3     4   ar
    11     4     5   ar
    12     5     6    1
    13     6     7    1
    14     7     8    1
    15     8     9   am
    16     9    10    2
    17     9    13    1
    18    13    14   ar
    19    14    15   ar
    20    15    16   ar
    21    16    17    1
    22    16    18   ar
    23    18    19   ar
    24     8    11    1
    25    11    12    1
    26    23    24   ar
    27    24    20   ar
    28     5     1   ar
    29    19    13   ar
    30    11     4    1
@<TRIPOS>MOLECULE
*****
 27 30 0 0 0
SMALL
GASTEIGER

@<TRIPOS>ATOM
      1 C         140.8197  138.5440  162.2779 C.ar    1  UNL1        0.2228
      2 N         139.6248  137.6600  162.0759 N.ar    1  UNL1       -0.1240
      3 N         138.8482  137.6301  163.3588 N.ar    1  UNL1       -0.1315
      4 C         139.5632  138.4955  164.3538 C.ar    1  UNL1        0.1616
      5 N         140.7817  139.0603  163.6857 N.ar    1  UNL1       -0.2918
      6 C         141.6991  139.9718  164.4456 C.3     1  UNL1        0.1303
      7 C         141.3980  140.3185  165.8737 C.3     1  UNL1        0.1186
      8 N         140.1796  139.7537  166.5417 N.am    1  UNL1       -0.2688
      9 C         139.8785  140.1004  167.9697 C.2     1  UNL1        0.2494
     10 O         138.6600  139.5356  168.6378 O.2     1  UNL1       -0.2699
     11 C         139.2621  138.8422  165.7817 C.3     1  UNL1        0.1343
     12 C         138.0437  138.2774  166.4498 C.3     1  UNL1        0.0298
     13 C         140.7959  141.0119  168.7296 C.ar    1  UNL1        0.0537
     14 C         142.1284  140.5109  169.2023 C.ar    1  UNL1        0.0068
     15 C         143.0459  141.4224  169.9622 C.ar    1  UNL1        0.0298
     16 C         142.6308  142.8349  170.2494 C.ar    1  UNL1        0.1401
     17 F         143.5482  143.7465  171.0094 F       1  UNL1       -0.2042
     18 C         141.2983  143.3359  169.7767 C.ar    1  UNL1        0.0298
     19 C         140.3808  142.4244  169.0168 C.ar    1  UNL1        0.0068
     20 C         143.3203  140.0680  159.7304 C.ar    1  UNL1        0.1805
     21 N         143.6451  138.6079  159.6172 N.ar    1  UNL1       -0.0601
     22 O         142.7478  137.8593  160.5578 O.2     1  UNL1       -0.3295
     23 C         141.8686  138.8567  161.2522 C.ar    1  UNL1        0.2958
     24 N         142.2224  140.2217  160.7408 N.ar    1  UNL1       -0.1885
     25 C         144.2357  142.4976  159.6345 C.3     1  UNL1        0.0081
     26 C         143.9780  141.1791  158.9670 C.3     1  UNL1        0.0621
     27 C         144.3781  140.9719  157.5363 C.3     1  UNL1        0.0081
@<TRIPOS>BOND
     1    25    26    1
     2    26    27    1
     3    26    20    1
     4    20    21   ar
     5    21    22   ar
     6    22    23   ar
     7    23     1    1
     8     1     2   ar
     9     2     3   ar
    10     3     4   ar
    11     4     5   ar
    12     5     6    1
    13     6     7    1
    14     7     8    1
    15     8     9   am
    16     9    10    2
    17     9    13    1
    18    13    14   ar
    19    14    15   ar
    20    15    16   ar
    21    16    17    1
    22    16    18   ar
    23    18    19   ar
    24     8    11    1
    25    11    12    1
    26    23    24   ar
    27    24    20   ar
    28     5     1   ar
    29    19    13   ar
    30    11     4    1
@<TRIPOS>MOLECULE
*****
 27 30 0 0 0
SMALL
GASTEIGER

@<TRIPOS>ATOM
      1 C         143.4125  141.1853  162.1288 C.ar    1  UNL1        0.2228
      2 N         144.2752  140.0006  161.8094 N.ar    1  UNL1       -0.1240
      3 N         144.4195  139.1823  163.0582 N.ar    1  UNL1       -0.1315
      4 C         143.6459  139.8612  164.1494 C.ar    1  UNL1        0.1616
      5 N         143.0235  141.0992  163.5749 N.ar    1  UNL1       -0.2918
      6 C         142.1830  141.9881  164.4428 C.3     1  UNL1        0.1303
      7 C         141.9648  141.6390  165.8853 C.3     1  UNL1        0.1186
      8 N         142.5872  140.4011  166.4598 N.am    1  UNL1       -0.2688
      9 C         142.3691  140.0520  167.9021 C.2     1  UNL1        0.2494
     10 O         142.9915  138.8140  168.4766 O.2     1  UNL1       -0.2699
     11 C         143.4278  139.5121  165.5917 C.3     1  UNL1        0.1343
     12 C         144.0502  138.2741  166.1662 C.3     1  UNL1        0.0298
     13 C         141.5286  140.9409  168.7701 C.ar    1  UNL1        0.0537
     14 C         140.1556  140.5024  169.1857 C.ar    1  UNL1        0.0068
     15 C         139.3151  141.3914  170.0537 C.ar    1  UNL1        0.0298
     16 C         139.8476  142.7188  170.5060 C.ar    1  UNL1        0.1401
     17 F         139.0071  143.6077  171.3740 F       1  UNL1       -0.2042
     18 C         141.2205  143.1572  170.0903 C.ar    1  UNL1        0.0298
     19 C         142.0610  142.2683  169.2224 C.ar    1  UNL1        0.0068
     20 C         141.7967  144.0912  160.1262 C.ar    1  UNL1        0.1805
     21 N         142.9815  143.7690  159.2644 N.ar    1  UNL1       -0.0601
     22 O         143.7310  142.6412  159.9098 O.2     1  UNL1       -0.3295
     23 C         143.0094  142.2664  161.1703 C.ar    1  UNL1        0.2958
     24 N         141.8139  143.1626  161.3040 N.ar    1  UNL1       -0.1885
     25 C         140.4210  145.5161  158.4446 C.3     1  UNL1        0.0081
     26 C         140.7742  145.1552  159.8572 C.3     1  UNL1        0.0621
     27 C         140.1049  145.8585  161.0007 C.3     1  UNL1        0.0081
@<TRIPOS>BOND
     1    25    26    1
     2    26    27    1
     3    26    20    1
     4    20    21   ar
     5    21    22   ar
     6    22    23   ar
     7    23     1    1
     8     1     2   ar
     9     2     3   ar
    10     3     4   ar
    11     4     5   ar
    12     5     6    1
    13     6     7    1
    14     7     8    1
    15     8     9   am
    16     9    10    2
    17     9    13    1
    18    13    14   ar
    19    14    15   ar
    20    15    16   ar
    21    16    17    1
    22    16    18   ar
    23    18    19   ar
    24     8    11    1
    25    11    12    1
    26    23    24   ar
    27    24    20   ar
    28     5     1   ar
    29    19    13   ar
    30    11     4    1
@<TRIPOS>MOLECULE
*****
 27 30 0 0 0
SMALL
GASTEIGER

@<TRIPOS>ATOM
      1 C         142.2750  142.4145  170.6070 C.ar    1  UNL1        0.2228
      2 N         141.2553  142.3714  171.7062 N.ar    1  UNL1       -0.1240
      3 N         140.0816  141.5749  171.2186 N.ar    1  UNL1       -0.1315
      4 C         140.3758  141.1258  169.8179 C.ar    1  UNL1        0.1616
      5 N         141.7315  141.6447  169.4400 N.ar    1  UNL1       -0.2918
      6 C         142.2958  141.3492  168.0820 C.3     1  UNL1        0.1303
      7 C         141.5045  140.5348  167.1019 C.3     1  UNL1        0.1186
      8 N         140.1489  140.0158  167.4799 N.am    1  UNL1       -0.2688
      9 C         139.3576  139.2014  166.4999 C.2     1  UNL1        0.2494
     10 O         138.0019  138.6824  166.8778 O.2     1  UNL1       -0.2699
     11 C         139.5845  140.3113  168.8379 C.3     1  UNL1        0.1343
     12 C         138.2289  139.7923  169.2159 C.3     1  UNL1        0.0298
     13 C         139.9219  138.9059  165.1419 C.ar    1  UNL1        0.0537
     14 C         140.6649  137.6253  164.9008 C.ar    1  UNL1        0.0068
     15 C         141.2292  137.3299  163.5428 C.ar    1  UNL1        0.0298
     16 C         141.0506  138.3150  162.4258 C.ar    1  UNL1        0.1401
     17 F         141.6150  138.0195  161.0677 F       1  UNL1       -0.2042
     18 C         140.3076  139.5956  162.6669 C.ar    1  UNL1        0.0298
     19 C         139.7433  139.8910  164.0248 C.ar    1  UNL1        0.0068
     20 C         145.3726  144.6653  171.2433 C.ar    1  UNL1        0.1805
     21 N         145.9298  143.6755  170.2635 N.ar    1  UNL1       -0.0601
     22 O         144.8373  142.7119  169.9059 O.2     1  UNL1       -0.3295
     23 C         143.6048  143.1061  170.6646 C.ar    1  UNL1        0.2958
     24 N         143.9357  144.3134  171.4912 N.ar    1  UNL1       -0.1885
     25 C         147.2187  145.5349  172.8514 C.3     1  UNL1        0.0081
     26 C         146.1209  145.8065  171.8658 C.3     1  UNL1        0.0621
     27 C         145.7715  147.2194  171.5028 C.3     1  UNL1        0.0081
@<TRIPOS>BOND
     1    25    26    1
     2    26    27    1
     3    26    20    1
     4    20    21   ar
     5    21    22   ar
     6    22    23   ar
     7    23     1    1
     8     1     2   ar
     9     2     3   ar
    10     3     4   ar
    11     4     5   ar
    12     5     6    1
    13     6     7    1
    14     7     8    1
    15     8     9   am
    16     9    10    2
    17     9    13    1
    18    13    14   ar
    19    14    15   ar
    20    15    16   ar
    21    16    17    1
    22    16    18   ar
    23    18    19   ar
    24     8    11    1
    25    11    12    1
    26    23    24   ar
    27    24    20   ar
    28     5     1   ar
    29    19    13   ar
    30    11     4    1
@<TRIPOS>MOLECULE
*****
 27 30 0 0 0
SMALL
GASTEIGER

@<TRIPOS>ATOM
      1 C         139.7711  140.3055  162.0235 C.ar    1  UNL1        0.2228
      2 N         138.6973  139.2770  161.8257 N.ar    1  UNL1       -0.1240
      3 N         138.2321  138.8264  163.1787 N.ar    1  UNL1       -0.1315
      4 C         139.0184  139.5765  164.2127 C.ar    1  UNL1        0.1616
      5 N         139.9695  140.4906  163.4987 N.ar    1  UNL1       -0.2918
      6 C         140.8934  141.3734  164.2842 C.3     1  UNL1        0.1303
      7 C         140.8663  141.3422  165.7837 C.3     1  UNL1        0.1186
      8 N         139.9151  140.4280  166.4976 N.am    1  UNL1       -0.2688
      9 C         139.8879  140.3967  167.9970 C.2     1  UNL1        0.2494
     10 O         138.9368  139.4826  168.7110 O.2     1  UNL1       -0.2699
     11 C         138.9912  139.5452  165.7121 C.3     1  UNL1        0.1343
     12 C         138.0401  138.6310  166.4260 C.3     1  UNL1        0.0298
     13 C         140.8118  141.2795  168.7825 C.ar    1  UNL1        0.0537
     14 C         140.3658  142.6496  169.1994 C.ar    1  UNL1        0.0068
     15 C         141.2898  143.5325  169.9849 C.ar    1  UNL1        0.0298
     16 C         142.6597  143.0452  170.3534 C.ar    1  UNL1        0.1401
     17 F         143.5837  143.9281  171.1389 F       1  UNL1       -0.2042
     18 C         143.1057  141.6751  169.9364 C.ar    1  UNL1        0.0298
     19 C         142.1818  140.7923  169.1509 C.ar    1  UNL1        0.0068
     20 C         141.3978  142.7824  159.5168 C.ar    1  UNL1        0.1805
     21 N         141.9252  141.4718  159.0126 N.ar    1  UNL1       -0.0601
     22 O         141.3799  140.3843  159.8903 O.2     1  UNL1       -0.3295
     23 C         140.5157  141.0230  160.9368 C.ar    1  UNL1        0.2958
     24 N         140.5267  142.5050  160.7060 N.ar    1  UNL1       -0.1885
     25 C         142.5316  144.2505  157.6976 C.3     1  UNL1        0.0081
     26 C         141.6903  144.1333  158.9339 C.3     1  UNL1        0.0621
     27 C         141.1415  145.3669  159.5874 C.3     1  UNL1        0.0081
@<TRIPOS>BOND
     1    25    26    1
     2    26    27    1
     3    26    20    1
     4    20    21   ar
     5    21    22   ar
     6    22    23   ar
     7    23     1    1
     8     1     2   ar
     9     2     3   ar
    10     3     4   ar
    11     4     5   ar
    12     5     6    1
    13     6     7    1
    14     7     8    1
    15     8     9   am
    16     9    10    2
    17     9    13    1
    18    13    14   ar
    19    14    15   ar
    20    15    16   ar
    21    16    17    1
    22    16    18   ar
    23    18    19   ar
    24     8    11    1
    25    11    12    1
    26    23    24   ar
    27    24    20   ar
    28     5     1   ar
    29    19    13   ar
    30    11     4    1
@<TRIPOS>MOLECULE
*****
 27 30 0 0 0
SMALL
GASTEIGER

@<TRIPOS>ATOM
      1 C         142.6718  143.3835  160.5808 C.ar    1  UNL1        0.2228
      2 N         144.1520  143.2633  160.3700 N.ar    1  UNL1       -0.1240
      3 N         144.6723  142.2238  161.3180 N.ar    1  UNL1       -0.1315
      4 C         143.5136  141.7015  162.1147 C.ar    1  UNL1        0.1616
      5 N         142.2772  142.4183  161.6591 N.ar    1  UNL1       -0.2918
      6 C         140.9519  142.0994  162.2850 C.3     1  UNL1        0.1303
      7 C         140.8629  141.0638  163.3665 C.3     1  UNL1        0.1186
      8 N         142.0993  140.3470  163.8221 N.am    1  UNL1       -0.2688
      9 C         142.0104  139.3114  164.9035 C.2     1  UNL1        0.2494
     10 O         143.2468  138.5947  165.3591 O.2     1  UNL1       -0.2699
     11 C         143.4247  140.6659  163.1962 C.3     1  UNL1        0.1343
     12 C         144.6611  139.9491  163.6517 C.3     1  UNL1        0.0298
     13 C         140.6851  138.9926  165.5294 C.ar    1  UNL1        0.0537
     14 C         139.8390  137.8866  164.9718 C.ar    1  UNL1        0.0068
     15 C         138.5136  137.5678  165.5977 C.ar    1  UNL1        0.0298
     16 C         138.0343  138.3549  166.7812 C.ar    1  UNL1        0.1401
     17 F         136.7089  138.0361  167.4072 F       1  UNL1       -0.2042
     18 C         138.8804  139.4609  167.3389 C.ar    1  UNL1        0.0298
     19 C         140.2058  139.7797  166.7130 C.ar    1  UNL1        0.0068
     20 C         140.6930  145.5835  158.0689 C.ar    1  UNL1        0.1805
     21 N         139.9609  145.8718  159.3460 N.ar    1  UNL1       -0.0601
     22 O         140.6131  145.0828  160.4424 O.2     1  UNL1       -0.3295
     23 C         141.7482  144.3068  159.8430 C.ar    1  UNL1        0.2958
     24 N         141.7976  144.6162  158.3761 N.ar    1  UNL1       -0.1885
     25 C         141.2331  145.8193  155.5385 C.3     1  UNL1        0.0081
     26 C         140.3761  146.1610  156.7213 C.3     1  UNL1        0.0621
     27 C         139.2022  147.0802  156.5564 C.3     1  UNL1        0.0081
@<TRIPOS>BOND
     1    25    26    1
     2    26    27    1
     3    26    20    1
     4    20    21   ar
     5    21    22   ar
     6    22    23   ar
     7    23     1    1
     8     1     2   ar
     9     2     3   ar
    10     3     4   ar
    11     4     5   ar
    12     5     6    1
    13     6     7    1
    14     7     8    1
    15     8     9   am
    16     9    10    2
    17     9    13    1
    18    13    14   ar
    19    14    15   ar
    20    15    16   ar
    21    16    17    1
    22    16    18   ar
    23    18    19   ar
    24     8    11    1
    25    11    12    1
    26    23    24   ar
    27    24    20   ar
    28     5     1   ar
    29    19    13   ar
    30    11     4    1
@<TRIPOS>MOLECULE
*****
 27 30 0 0 0
SMALL
GASTEIGER

@<TRIPOS>ATOM
      1 C         143.3454  139.7187  159.2109 C.ar    1  UNL1        0.2228
      2 N         143.2022  138.2400  159.0038 N.ar    1  UNL1       -0.1240
      3 N         142.1941  137.7294  159.9903 N.ar    1  UNL1       -0.1315
      4 C         141.7145  138.8925  160.8070 C.ar    1  UNL1        0.1616
      5 N         142.4260  140.1220  160.3253 N.ar    1  UNL1       -0.2918
      6 C         142.1448  141.4499  160.9637 C.3     1  UNL1        0.1303
      7 C         141.1520  141.5483  162.0839 C.3     1  UNL1        0.1186
      8 N         140.4405  140.3188  162.5656 N.am    1  UNL1       -0.2688
      9 C         139.4477  140.4172  163.6857 C.2     1  UNL1        0.2494
     10 O         138.7361  139.1877  164.1674 O.2     1  UNL1       -0.2699
     11 C         140.7217  138.9909  161.9272 C.3     1  UNL1        0.1343
     12 C         140.0102  137.7614  162.4089 C.3     1  UNL1        0.0298
     13 C         139.1665  141.7451  164.3241 C.ar    1  UNL1        0.0537
     14 C         138.0094  142.5744  163.8516 C.ar    1  UNL1        0.0068
     15 C         137.7282  143.9024  164.4901 C.ar    1  UNL1        0.0298
     16 C         138.6041  144.4009  165.6010 C.ar    1  UNL1        0.1401
     17 F         138.3229  145.7289  166.2395 F       1  UNL1       -0.2042
     18 C         139.7612  143.5716  166.0735 C.ar    1  UNL1        0.0298
     19 C         140.0425  142.2437  165.4351 C.ar    1  UNL1        0.0068
     20 C         145.7658  141.4961  156.7516 C.ar    1  UNL1        0.1805
     21 N         145.5154  142.5866  157.7507 N.ar    1  UNL1       -0.0601
     22 O         144.5782  142.0535  158.7936 O.2     1  UNL1       -0.3295
     23 C         144.2495  140.6336  158.4390 C.ar    1  UNL1        0.2958
     24 N         144.9834  140.2891  157.1770 N.ar    1  UNL1       -0.1885
     25 C         148.0843  141.9888  155.6877 C.3     1  UNL1        0.0081
     26 C         146.6443  141.5953  155.5399 C.3     1  UNL1        0.0621
     27 C         146.0830  141.3011  154.1803 C.3     1  UNL1        0.0081
@<TRIPOS>BOND
     1    25    26    1
     2    26    27    1
     3    26    20    1
     4    20    21   ar
     5    21    22   ar
     6    22    23   ar
     7    23     1    1
     8     1     2   ar
     9     2     3   ar
    10     3     4   ar
    11     4     5   ar
    12     5     6    1
    13     6     7    1
    14     7     8    1
    15     8     9   am
    16     9    10    2
    17     9    13    1
    18    13    14   ar
    19    14    15   ar
    20    15    16   ar
    21    16    17    1
    22    16    18   ar
    23    18    19   ar
    24     8    11    1
    25    11    12    1
    26    23    24   ar
    27    24    20   ar
    28     5     1   ar
    29    19    13   ar
    30    11     4    1
@<TRIPOS>MOLECULE
*****
 27 30 0 0 0
SMALL
GASTEIGER

@<TRIPOS>ATOM
      1 C         142.8143  143.4508  158.7728 C.ar    1  UNL1        0.2228
      2 N         142.5519  144.8285  158.2408 N.ar    1  UNL1       -0.1240
      3 N         141.6771  145.5466  159.2251 N.ar    1  UNL1       -0.1315
      4 C         141.3989  144.6128  160.3655 C.ar    1  UNL1        0.1616
      5 N         142.1017  143.3174  160.0860 N.ar    1  UNL1       -0.2918
      6 C         142.0020  142.1839  161.0633 C.3     1  UNL1        0.1303
      7 C         141.1994  142.3457  162.3202 C.3     1  UNL1        0.1186
      8 N         140.4966  143.6410  162.5997 N.am    1  UNL1       -0.2688
      9 C         139.6941  143.8028  163.8566 C.2     1  UNL1        0.2494
     10 O         138.9912  145.0981  164.1362 O.2     1  UNL1       -0.2699
     11 C         140.5963  144.7746  161.6224 C.3     1  UNL1        0.1343
     12 C         139.8935  146.0699  161.9019 C.3     1  UNL1        0.0298
     13 C         139.5944  142.6693  164.8339 C.ar    1  UNL1        0.0537
     14 C         138.5831  141.5821  164.6208 C.ar    1  UNL1        0.0068
     15 C         138.4834  140.4485  165.5982 C.ar    1  UNL1        0.0298
     16 C         139.3950  140.4022  166.7885 C.ar    1  UNL1        0.1401
     17 F         139.2953  139.2686  167.7659 F       1  UNL1       -0.2042
     18 C         140.4062  141.4894  167.0015 C.ar    1  UNL1        0.0298
     19 C         140.5059  142.6229  166.0243 C.ar    1  UNL1        0.0068
     20 C         145.1131  141.2510  156.5498 C.ar    1  UNL1        0.1805
     21 N         144.7270  140.2755  157.6218 N.ar    1  UNL1       -0.0601
     22 O         143.8188  140.9808  158.5851 O.2     1  UNL1       -0.3295
     23 C         143.6437  142.3922  158.1083 C.ar    1  UNL1        0.2958
     24 N         144.4436  142.5592  156.8505 N.ar    1  UNL1       -0.1885
     25 C         147.3898  141.5575  155.3359 C.3     1  UNL1        0.0081
     26 C         146.0111  140.9680  155.3821 C.3     1  UNL1        0.0621
     27 C         145.5306  140.0956  154.2605 C.3     1  UNL1        0.0081
@<TRIPOS>BOND
     1    25    26    1
     2    26    27    1
     3    26    20    1
     4    20    21   ar
     5    21    22   ar
     6    22    23   ar
     7    23     1    1
     8     1     2   ar
     9     2     3   ar
    10     3     4   ar
    11     4     5   ar
    12     5     6    1
    13     6     7    1
    14     7     8    1
    15     8     9   am
    16     9    10    2
    17     9    13    1
    18    13    14   ar
    19    14    15   ar
    20    15    16   ar
    21    16    17    1
    22    16    18   ar
    23    18    19   ar
    24     8    11    1
    25    11    12    1
    26    23    24   ar
    27    24    20   ar
    28     5     1   ar
    29    19    13   ar
    30    11     4    1
@<TRIPOS>MOLECULE
*****
 27 30 0 0 0
SMALL
GASTEIGER

@<TRIPOS>ATOM
      1 C         139.1595  141.8882  160.1779 C.ar    1  UNL1        0.2228
      2 N         138.4992  140.8291  159.3458 N.ar    1  UNL1       -0.1240
      3 N         138.3456  139.6018  160.1944 N.ar    1  UNL1       -0.1315
      4 C         138.9109  139.9023  161.5509 C.ar    1  UNL1        0.1616
      5 N         139.4139  141.3154  161.5408 N.ar    1  UNL1       -0.2918
      6 C         140.0386  141.8980  162.7737 C.3     1  UNL1        0.1303
      7 C         140.1603  141.0675  164.0170 C.3     1  UNL1        0.1186
      8 N         139.6573  139.6544  164.0271 N.am    1  UNL1       -0.2688
      9 C         139.7789  138.8239  165.2703 C.2     1  UNL1        0.2494
     10 O         139.2759  137.4108  165.2804 O.2     1  UNL1       -0.2699
     11 C         139.0326  139.0718  162.7941 C.3     1  UNL1        0.1343
     12 C         138.5295  137.6587  162.8042 C.3     1  UNL1        0.0298
     13 C         140.4036  139.4066  166.5032 C.ar    1  UNL1        0.0537
     14 C         141.8935  139.3775  166.6745 C.ar    1  UNL1        0.0068
     15 C         142.5182  139.9602  167.9076 C.ar    1  UNL1        0.0298
     16 C         141.6530  140.5719  168.9693 C.ar    1  UNL1        0.1401
     17 F         142.2777  141.1545  170.2023 F       1  UNL1       -0.2042
     18 C         140.1631  140.6009  168.7980 C.ar    1  UNL1        0.0298
     19 C         139.5384  140.0183  167.5650 C.ar    1  UNL1        0.0068
     20 C         140.1647  145.1552  158.3392 C.ar    1  UNL1        0.1805
     21 N         139.9073  145.6698  159.7245 N.ar    1  UNL1       -0.0601
     22 O         139.4994  144.5085  160.5819 O.2     1  UNL1       -0.3295
     23 C         139.5047  143.2763  159.7265 C.ar    1  UNL1        0.2958
     24 N         139.9159  143.6760  158.3404 N.ar    1  UNL1       -0.1885
     25 C         139.5924  146.8125  156.4218 C.3     1  UNL1        0.0081
     26 C         140.5953  145.9759  157.1597 C.3     1  UNL1        0.0621
     27 C         142.0287  145.9599  156.7181 C.3     1  UNL1        0.0081
@<TRIPOS>BOND
     1    25    26    1
     2    26    27    1
     3    26    20    1
     4    20    21   ar
     5    21    22   ar
     6    22    23   ar
     7    23     1    1
     8     1     2   ar
     9     2     3   ar
    10     3     4   ar
    11     4     5   ar
    12     5     6    1
    13     6     7    1
    14     7     8    1
    15     8     9   am
    16     9    10    2
    17     9    13    1
    18    13    14   ar
    19    14    15   ar
    20    15    16   ar
    21    16    17    1
    22    16    18   ar
    23    18    19   ar
    24     8    11    1
    25    11    12    1
    26    23    24   ar
    27    24    20   ar
    28     5     1   ar
    29    19    13   ar
    30    11     4    1
