@<TRIPOS>MOLECULE
*****
 12 13 0 0 0
SMALL
GASTEIGER

@<TRIPOS>ATOM
      1 C         142.3325  139.4189  166.4223 C.3     1  UNL1        0.0899
      2 N         140.8780  139.1825  166.1420 N.3     1  UNL1       -0.2691
      3 C         140.3198  138.2849  165.0778 C.3     1  UNL1        0.0724
      4 C         138.8231  138.3498  165.1547 C.3     1  UNL1        0.0191
      5 C         138.4565  139.2877  166.2664 C.3     1  UNL1        0.0220
      6 C         139.7264  139.8023  166.8766 C.3     1  UNL1        0.0817
      7 C         139.8271  140.7673  168.0206 C.ar    1  UNL1        0.0114
      8 C         140.4202  142.1280  167.8041 C.ar    1  UNL1        0.0002
      9 C         140.5208  143.0929  168.9481 C.ar    1  UNL1        0.0204
     10 C         140.0284  142.6972  170.3086 C.ar    1  UNL1        0.0989
     11 N         139.4353  141.3366  170.5251 N.ar    1  UNL1       -0.2426
     12 C         139.3347  140.3716  169.3811 C.ar    1  UNL1        0.0959
@<TRIPOS>BOND
     1     1     2    1
     2     2     3    1
     3     3     4    1
     4     4     5    1
     5     5     6    1
     6     6     7    1
     7     7     8   ar
     8     8     9   ar
     9     9    10   ar
    10    10    11   ar
    11    11    12   ar
    12     6     2    1
    13    12     7   ar
@<TRIPOS>MOLECULE
*****
 12 13 0 0 0
SMALL
GASTEIGER

@<TRIPOS>ATOM
      1 C         140.3315  142.5399  166.1433 C.3     1  UNL1        0.0899
      2 N         139.5529  141.2616  166.2408 N.3     1  UNL1       -0.2691
      3 C         138.6486  140.6974  165.1854 C.3     1  UNL1        0.0724
      4 C         138.0786  139.4101  165.7032 C.3     1  UNL1        0.0191
      5 C         138.6305  139.1788  167.0786 C.3     1  UNL1        0.0220
      6 C         139.5416  140.3231  167.4109 C.3     1  UNL1        0.0817
      7 C         140.3072  140.4982  168.6890 C.ar    1  UNL1        0.0114
      8 C         141.7332  140.0416  168.7776 C.ar    1  UNL1        0.0002
      9 C         142.4987  140.2166  170.0556 C.ar    1  UNL1        0.0204
     10 C         141.8381  140.8483  171.2450 C.ar    1  UNL1        0.0989
     11 N         140.4121  141.3050  171.1564 N.ar    1  UNL1       -0.2426
     12 C         139.6466  141.1299  169.8784 C.ar    1  UNL1        0.0959
@<TRIPOS>BOND
     1     1     2    1
     2     2     3    1
     3     3     4    1
     4     4     5    1
     5     5     6    1
     6     6     7    1
     7     7     8   ar
     8     8     9   ar
     9     9    10   ar
    10    10    11   ar
    11    11    12   ar
    12     6     2    1
    13    12     7   ar
@<TRIPOS>MOLECULE
*****
 12 13 0 0 0
SMALL
GASTEIGER

@<TRIPOS>ATOM
      1 C         139.7631  140.5275  165.4027 C.3     1  UNL1        0.0899
      2 N         140.9968  139.9011  165.9819 N.3     1  UNL1       -0.2691
      3 C         141.9126  138.9435  165.2788 C.3     1  UNL1        0.0724
      4 C         143.0132  138.5728  166.2282 C.3     1  UNL1        0.0191
      5 C         142.7776  139.3014  167.5180 C.3     1  UNL1        0.0220
      6 C         141.5314  140.1224  167.3658 C.3     1  UNL1        0.0817
      7 C         140.9261  141.0089  168.4136 C.ar    1  UNL1        0.0114
      8 C         141.3852  142.4304  168.5497 C.ar    1  UNL1        0.0002
      9 C         140.7799  143.3168  169.5974 C.ar    1  UNL1        0.0204
     10 C         139.7156  142.7818  170.5090 C.ar    1  UNL1        0.0989
     11 N         139.2565  141.3603  170.3728 N.ar    1  UNL1       -0.2426
     12 C         139.8618  140.4739  169.3251 C.ar    1  UNL1        0.0959
@<TRIPOS>BOND
     1     1     2    1
     2     2     3    1
     3     3     4    1
     4     4     5    1
     5     5     6    1
     6     6     7    1
     7     7     8   ar
     8     8     9   ar
     9     9    10   ar
    10    10    11   ar
    11    11    12   ar
    12     6     2    1
    13    12     7   ar
@<TRIPOS>MOLECULE
*****
 12 13 0 0 0
SMALL
GASTEIGER

@<TRIPOS>ATOM
      1 C         139.6137  139.6719  162.4248 C.3     1  UNL1        0.0899
      2 N         139.1407  139.2886  163.7957 N.3     1  UNL1       -0.2691
      3 C         138.9180  137.8910  164.2927 C.3     1  UNL1        0.0724
      4 C         138.4470  137.9742  165.7145 C.3     1  UNL1        0.0191
      5 C         138.3786  139.4232  166.0960 C.3     1  UNL1        0.0220
      6 C         138.8073  140.2356  164.9101 C.3     1  UNL1        0.0817
      7 C         138.8885  141.7322  164.8495 C.ar    1  UNL1        0.0114
      8 C         137.6938  142.5312  164.4201 C.ar    1  UNL1        0.0002
      9 C         137.7750  144.0278  164.3594 C.ar    1  UNL1        0.0204
     10 C         139.0508  144.7253  164.7281 C.ar    1  UNL1        0.0989
     11 N         140.2454  143.9263  165.1575 N.ar    1  UNL1       -0.2426
     12 C         140.1642  142.4297  165.2181 C.ar    1  UNL1        0.0959
@<TRIPOS>BOND
     1     1     2    1
     2     2     3    1
     3     3     4    1
     4     4     5    1
     5     5     6    1
     6     6     7    1
     7     7     8   ar
     8     8     9   ar
     9     9    10   ar
    10    10    11   ar
    11    11    12   ar
    12     6     2    1
    13    12     7   ar
@<TRIPOS>MOLECULE
*****
 12 13 0 0 0
SMALL
GASTEIGER

@<TRIPOS>ATOM
      1 C         142.5852  139.7168  168.7246 C.3     1  UNL1        0.0899
      2 N         141.9791  141.0574  169.0168 N.3     1  UNL1       -0.2691
      3 C         142.5068  142.0705  169.9890 C.3     1  UNL1        0.0724
      4 C         141.5927  143.2596  169.9612 C.3     1  UNL1        0.0191
      5 C         140.5002  142.9813  168.9718 C.3     1  UNL1        0.0220
      6 C         140.7390  141.6203  168.3882 C.3     1  UNL1        0.0817
      7 C         139.8871  140.9414  167.3569 C.ar    1  UNL1        0.0114
      8 C         139.1270  139.6981  167.7123 C.ar    1  UNL1        0.0002
      9 C         138.2752  139.0193  166.6811 C.ar    1  UNL1        0.0204
     10 C         138.1835  139.5837  165.2943 C.ar    1  UNL1        0.0989
     11 N         138.9437  140.8269  164.9389 N.ar    1  UNL1       -0.2426
     12 C         139.7955  141.5058  165.9701 C.ar    1  UNL1        0.0959
@<TRIPOS>BOND
     1     1     2    1
     2     2     3    1
     3     3     4    1
     4     4     5    1
     5     5     6    1
     6     6     7    1
     7     7     8   ar
     8     8     9   ar
     9     9    10   ar
    10    10    11   ar
    11    11    12   ar
    12     6     2    1
    13    12     7   ar
@<TRIPOS>MOLECULE
*****
 12 13 0 0 0
SMALL
GASTEIGER

@<TRIPOS>ATOM
      1 C         138.4277  138.3406  165.7430 C.3     1  UNL1        0.0899
      2 N         138.7026  139.7972  165.5130 N.3     1  UNL1       -0.2691
      3 C         138.1493  140.6333  164.3973 C.3     1  UNL1        0.0724
      4 C         138.6838  142.0263  164.5530 C.3     1  UNL1        0.0191
      5 C         139.5673  142.0509  165.7649 C.3     1  UNL1        0.0220
      6 C         139.5790  140.6732  166.3582 C.3     1  UNL1        0.0817
      7 C         140.3344  140.2466  167.5819 C.ar    1  UNL1        0.0114
      8 C         141.7914  139.9042  167.4824 C.ar    1  UNL1        0.0002
      9 C         142.5467  139.4776  168.7061 C.ar    1  UNL1        0.0204
     10 C         141.8451  139.3933  170.0292 C.ar    1  UNL1        0.0989
     11 N         140.3881  139.7358  170.1286 N.ar    1  UNL1       -0.2426
     12 C         139.6328  140.1624  168.9050 C.ar    1  UNL1        0.0959
@<TRIPOS>BOND
     1     1     2    1
     2     2     3    1
     3     3     4    1
     4     4     5    1
     5     5     6    1
     6     6     7    1
     7     7     8   ar
     8     8     9   ar
     9     9    10   ar
    10    10    11   ar
    11    11    12   ar
    12     6     2    1
    13    12     7   ar
@<TRIPOS>MOLECULE
*****
 12 13 0 0 0
SMALL
GASTEIGER

@<TRIPOS>ATOM
      1 C         143.2123  141.9363  166.1474 C.3     1  UNL1        0.0899
      2 N         142.0277  142.7242  165.6721 N.3     1  UNL1       -0.2691
      3 C         141.9904  143.6217  164.4708 C.3     1  UNL1        0.0724
      4 C         140.6121  144.2053  164.3709 C.3     1  UNL1        0.0191
      5 C         139.7977  143.6684  165.5104 C.3     1  UNL1        0.0220
      6 C         140.6726  142.7531  166.3146 C.3     1  UNL1        0.0817
      7 C         140.2641  141.9990  167.5453 C.ar    1  UNL1        0.0114
      8 C         140.3418  142.6593  168.8899 C.ar    1  UNL1        0.0002
      9 C         139.9333  141.9052  170.1205 C.ar    1  UNL1        0.0204
     10 C         139.4471  140.4908  170.0065 C.ar    1  UNL1        0.0989
     11 N         139.3694  139.8304  168.6620 N.ar    1  UNL1       -0.2426
     12 C         139.7780  140.5845  167.4314 C.ar    1  UNL1        0.0959
@<TRIPOS>BOND
     1     1     2    1
     2     2     3    1
     3     3     4    1
     4     4     5    1
     5     5     6    1
     6     6     7    1
     7     7     8   ar
     8     8     9   ar
     9     9    10   ar
    10    10    11   ar
    11    11    12   ar
    12     6     2    1
    13    12     7   ar
@<TRIPOS>MOLECULE
*****
 12 13 0 0 0
SMALL
GASTEIGER

@<TRIPOS>ATOM
      1 C         138.4359  139.9027  170.0007 C.3     1  UNL1        0.0899
      2 N         138.9244  139.8672  168.5829 N.3     1  UNL1       -0.2691
      3 C         138.2783  139.1325  167.4459 C.3     1  UNL1        0.0724
      4 C         139.0994  139.3714  166.2134 C.3     1  UNL1        0.0191
      5 C         140.2529  140.2537  166.5888 C.3     1  UNL1        0.0220
      6 C         140.1447  140.5601  168.0532 C.3     1  UNL1        0.0817
      7 C         141.0909  141.4103  168.8483 C.ar    1  UNL1        0.0114
      8 C         142.5127  140.9723  169.0397 C.ar    1  UNL1        0.0002
      9 C         143.4587  141.8225  169.8348 C.ar    1  UNL1        0.0204
     10 C         142.9830  143.1106  170.4384 C.ar    1  UNL1        0.0989
     11 N         141.5613  143.5486  170.2470 N.ar    1  UNL1       -0.2426
     12 C         140.6152  142.6985  169.4519 C.ar    1  UNL1        0.0959
@<TRIPOS>BOND
     1     1     2    1
     2     2     3    1
     3     3     4    1
     4     4     5    1
     5     5     6    1
     6     6     7    1
     7     7     8   ar
     8     8     9   ar
     9     9    10   ar
    10    10    11   ar
    11    11    12   ar
    12     6     2    1
    13    12     7   ar
@<TRIPOS>MOLECULE
*****
 12 13 0 0 0
SMALL
GASTEIGER

@<TRIPOS>ATOM
      1 C         139.8604  143.3562  161.6906 C.3     1  UNL1        0.0899
      2 N         139.2378  143.7704  162.9909 N.3     1  UNL1       -0.2691
      3 C         137.7717  143.9583  163.2460 C.3     1  UNL1        0.0724
      4 C         137.5997  144.3735  164.6772 C.3     1  UNL1        0.0191
      5 C         138.9595  144.4421  165.3065 C.3     1  UNL1        0.0220
      6 C         139.9719  144.0693  164.2643 C.3     1  UNL1        0.0817
      7 C         141.4577  144.0066  164.4611 C.ar    1  UNL1        0.0114
      8 C         142.0656  142.8684  165.2258 C.ar    1  UNL1        0.0002
      9 C         143.5513  142.8057  165.4225 C.ar    1  UNL1        0.0204
     10 C         144.4291  143.8812  164.8545 C.ar    1  UNL1        0.0989
     11 N         143.8212  145.0194  164.0898 N.ar    1  UNL1       -0.2426
     12 C         142.3355  145.0821  163.8931 C.ar    1  UNL1        0.0959
@<TRIPOS>BOND
     1     1     2    1
     2     2     3    1
     3     3     4    1
     4     4     5    1
     5     5     6    1
     6     6     7    1
     7     7     8   ar
     8     8     9   ar
     9     9    10   ar
    10    10    11   ar
    11    11    12   ar
    12     6     2    1
    13    12     7   ar
