@<TRIPOS>MOLECULE
*****
 20 21 0 0 0
SMALL
GASTEIGER

@<TRIPOS>ATOM
      1 C         141.3890  140.8782  167.6681 C.2     1  UNL1        0.1535
      2 N         140.4507  139.9836  166.9136 N.2     1  UNL1       -0.2470
      3 C         139.6359  140.8398  165.9900 C.3     1  UNL1        0.1723
      4 C         138.5543  140.5070  165.0055 C.3     1  UNL1        0.1701
      5 C         137.9074  141.5979  164.2046 C.3     1  UNL1        0.1691
      6 O         136.8258  141.2651  163.2201 O.3     1  UNL1       -0.3794
      7 C         138.3421  143.0218  164.3883 C.3     1  UNL1        0.1746
      8 O         139.4238  143.3546  165.3729 O.3     1  UNL1       -0.3402
      9 C         140.0706  142.2636  166.1737 C.3     1  UNL1        0.1938
     10 S         141.1541  142.2873  167.2108 S.3     1  UNL1       -0.0497
     11 H         136.6673  140.3081  163.2252 H       1  UNL1        0.2105
     12 C         137.6953  144.1127  163.5875 C.3     1  UNL1        0.1693
     13 O         137.5938  143.9890  162.0961 O.3     1  UNL1       -0.3794
     14 H         138.4829  144.0087  161.7088 H       1  UNL1        0.2105
     15 N         142.3870  140.4405  168.6989 N.pl3   1  UNL1       -0.3135
     16 H         142.8290  139.5648  168.6154 H       1  UNL1        0.1487
     17 C         143.8481  142.3104  169.7562 C.3     1  UNL1        0.0230
     18 C         142.7114  141.3370  169.8569 C.3     1  UNL1        0.0887
     19 O         138.1196  139.0831  164.8218 O.3     1  UNL1       -0.3489
     20 C         138.8890  138.1759  163.9082 C.3     1  UNL1        0.1742
@<TRIPOS>BOND
     1    17    18    1
     2    18    15    1
     3    15     1    1
     4     1     2    2
     5     3     2    1
     6     3     4    1
     7     4    19    1
     8    19    20    1
     9     4     5    1
    10     5     6    1
    11     5     7    1
    12     7    12    1
    13    12    13    1
    14     7     8    1
    15     9     8    1
    16     9    10    1
    17    10     1    1
    18     9     3    1
    19    15    16    1
    20     6    11    1
    21    13    14    1
@<TRIPOS>MOLECULE
*****
 20 21 0 0 0
SMALL
GASTEIGER

@<TRIPOS>ATOM
      1 C         142.3920  141.4346  167.0788 C.2     1  UNL1        0.1535
      2 N         143.3816  141.8794  166.0430 N.2     1  UNL1       -0.2470
      3 C         142.6733  142.7932  165.0874 C.3     1  UNL1        0.1723
      4 C         143.1437  143.5315  163.8693 C.3     1  UNL1        0.1701
      5 C         142.1866  144.3899  163.0964 C.3     1  UNL1        0.1691
      6 O         142.6570  145.1282  161.8784 O.3     1  UNL1       -0.3794
      7 C         140.7593  144.5099  163.5416 C.3     1  UNL1        0.1746
      8 O         140.2889  143.7715  164.7597 O.3     1  UNL1       -0.3402
      9 C         141.2459  142.9132  165.5325 C.3     1  UNL1        0.1938
     10 S         141.0721  142.0735  166.7633 S.3     1  UNL1       -0.0497
     11 H         143.5977  144.9430  161.7312 H       1  UNL1        0.2105
     12 C         139.8022  145.3682  162.7688 C.3     1  UNL1        0.1693
     13 O         140.2446  146.7039  162.2487 O.3     1  UNL1       -0.3794
     14 H         140.4283  147.2965  162.9944 H       1  UNL1        0.2105
     15 N         142.6730  140.5127  168.2283 N.pl3   1  UNL1       -0.3135
     16 H         142.6382  139.5376  168.0971 H       1  UNL1        0.1487
     17 C         143.7836  142.3553  169.6847 C.3     1  UNL1        0.0230
     18 C         143.0069  141.0765  169.5775 C.3     1  UNL1        0.0887
     19 O         144.5711  143.4115  163.4242 O.3     1  UNL1       -0.3489
     20 C         145.0231  142.1933  162.6747 C.3     1  UNL1        0.1742
@<TRIPOS>BOND
     1    17    18    1
     2    18    15    1
     3    15     1    1
     4     1     2    2
     5     3     2    1
     6     3     4    1
     7     4    19    1
     8    19    20    1
     9     4     5    1
    10     5     6    1
    11     5     7    1
    12     7    12    1
    13    12    13    1
    14     7     8    1
    15     9     8    1
    16     9    10    1
    17    10     1    1
    18     9     3    1
    19    15    16    1
    20     6    11    1
    21    13    14    1
@<TRIPOS>MOLECULE
*****
 20 21 0 0 0
SMALL
GASTEIGER

@<TRIPOS>ATOM
      1 C         139.6133  140.5052  166.0403 C.2     1  UNL1        0.1535
      2 N         138.9650  141.7298  165.4657 N.2     1  UNL1       -0.2470
      3 C         140.0508  142.6521  164.9962 C.3     1  UNL1        0.1723
      4 C         140.0086  144.0034  164.3464 C.3     1  UNL1        0.1701
      5 C         141.2858  144.7002  163.9811 C.3     1  UNL1        0.1691
      6 O         141.2435  146.0515  163.3314 O.3     1  UNL1       -0.3794
      7 C         142.6051  144.0457  164.2656 C.3     1  UNL1        0.1746
      8 O         142.6473  142.6943  164.9154 O.3     1  UNL1       -0.3402
      9 C         141.3701  141.9976  165.2807 C.3     1  UNL1        0.1938
     10 S         141.0997  140.6707  165.9260 S.3     1  UNL1       -0.0497
     11 H         140.3205  146.3279  163.2197 H       1  UNL1        0.2105
     12 C         143.8822  144.7424  163.9003 C.3     1  UNL1        0.1693
     13 O         144.0014  145.4473  162.5817 O.3     1  UNL1       -0.3794
     14 H         143.9596  144.7975  161.8627 H       1  UNL1        0.2105
     15 N         138.9003  139.3228  166.6263 N.pl3   1  UNL1       -0.3135
     16 H         138.7055  139.2939  167.5909 H       1  UNL1        0.1487
     17 C         138.8958  138.1651  164.3005 C.3     1  UNL1        0.0230
     18 C         138.4841  138.1844  165.7427 C.3     1  UNL1        0.0887
     19 O         138.6893  144.6579  164.0620 O.3     1  UNL1       -0.3489
     20 C         137.7902  144.1020  162.9978 C.3     1  UNL1        0.1742
@<TRIPOS>BOND
     1    17    18    1
     2    18    15    1
     3    15     1    1
     4     1     2    2
     5     3     2    1
     6     3     4    1
     7     4    19    1
     8    19    20    1
     9     4     5    1
    10     5     6    1
    11     5     7    1
    12     7    12    1
    13    12    13    1
    14     7     8    1
    15     9     8    1
    16     9    10    1
    17    10     1    1
    18     9     3    1
    19    15    16    1
    20     6    11    1
    21    13    14    1
@<TRIPOS>MOLECULE
*****
 20 21 0 0 0
SMALL
GASTEIGER

@<TRIPOS>ATOM
      1 C         140.2108  141.3387  166.9727 C.2     1  UNL1        0.1535
      2 N         139.2381  140.8590  165.9366 N.2     1  UNL1       -0.2470
      3 C         139.0937  141.9359  164.9025 C.3     1  UNL1        0.1723
      4 C         138.2719  142.0216  163.6506 C.3     1  UNL1        0.1701
      5 C         138.3336  143.2527  162.7957 C.3     1  UNL1        0.1691
      6 O         137.5118  143.3384  161.5438 O.3     1  UNL1       -0.3794
      7 C         139.2172  144.3980  163.1927 C.3     1  UNL1        0.1746
      8 O         140.0390  144.3122  164.4447 O.3     1  UNL1       -0.3402
      9 C         139.9773  143.0812  165.2995 C.3     1  UNL1        0.1938
     10 S         140.6677  142.7121  166.5790 S.3     1  UNL1       -0.0497
     11 H         137.0019  142.5204  161.4351 H       1  UNL1        0.2105
     12 C         139.2789  145.6290  162.3379 C.3     1  UNL1        0.1693
     13 O         140.4804  146.5249  162.3988 O.3     1  UNL1       -0.3794
     14 H         140.5344  146.9340  163.2767 H       1  UNL1        0.2105
     15 N         140.6497  140.5785  168.1891 N.pl3   1  UNL1       -0.3135
     16 H         141.3340  139.8752  168.1096 H       1  UNL1        0.1487
     17 C         138.7178  140.3041  169.9044 C.3     1  UNL1        0.0230
     18 C         140.0460  140.8898  169.5264 C.3     1  UNL1        0.0887
     19 O         137.3883  140.8764  163.2536 O.3     1  UNL1       -0.3489
     20 C         137.9541  139.7293  162.4700 C.3     1  UNL1        0.1742
@<TRIPOS>BOND
     1    17    18    1
     2    18    15    1
     3    15     1    1
     4     1     2    2
     5     3     2    1
     6     3     4    1
     7     4    19    1
     8    19    20    1
     9     4     5    1
    10     5     6    1
    11     5     7    1
    12     7    12    1
    13    12    13    1
    14     7     8    1
    15     9     8    1
    16     9    10    1
    17    10     1    1
    18     9     3    1
    19    15    16    1
    20     6    11    1
    21    13    14    1
@<TRIPOS>MOLECULE
*****
 20 21 0 0 0
SMALL
GASTEIGER

@<TRIPOS>ATOM
      1 C         138.9285  139.5647  164.6510 C.2     1  UNL1        0.1535
      2 N         140.3291  140.0342  164.9114 N.2     1  UNL1       -0.2470
      3 C         140.5251  140.1065  166.3968 C.3     1  UNL1        0.1723
      4 C         141.7034  140.5042  167.2355 C.3     1  UNL1        0.1701
      5 C         141.6022  140.4772  168.7319 C.3     1  UNL1        0.1691
      6 O         142.7805  140.8749  169.5706 O.3     1  UNL1       -0.3794
      7 C         140.3227  140.0523  169.3895 C.3     1  UNL1        0.1746
      8 O         139.1444  139.6546  168.5507 O.3     1  UNL1       -0.3402
      9 C         139.2457  139.6816  167.0544 C.3     1  UNL1        0.1938
     10 S         138.2589  139.3468  165.9754 S.3     1  UNL1       -0.0497
     11 H         143.5204  141.1197  168.9932 H       1  UNL1        0.2105
     12 C         140.2215  140.0252  170.8858 C.3     1  UNL1        0.1693
     13 O         140.6443  141.2202  171.6879 O.3     1  UNL1       -0.3794
     14 H         141.6006  141.3519  171.5923 H       1  UNL1        0.2105
     15 N         138.3066  139.3507  163.3028 N.pl3   1  UNL1       -0.3135
     16 H         138.2729  138.4468  162.9142 H       1  UNL1        0.1487
     17 C         137.4451  141.8014  163.2593 C.3     1  UNL1        0.0230
     18 C         137.7362  140.5139  162.5468 C.3     1  UNL1        0.0887
     19 O         142.9829  140.9291  166.5779 O.3     1  UNL1       -0.3489
     20 C         143.1778  142.3594  166.1705 C.3     1  UNL1        0.1742
@<TRIPOS>BOND
     1    17    18    1
     2    18    15    1
     3    15     1    1
     4     1     2    2
     5     3     2    1
     6     3     4    1
     7     4    19    1
     8    19    20    1
     9     4     5    1
    10     5     6    1
    11     5     7    1
    12     7    12    1
    13    12    13    1
    14     7     8    1
    15     9     8    1
    16     9    10    1
    17    10     1    1
    18     9     3    1
    19    15    16    1
    20     6    11    1
    21    13    14    1
@<TRIPOS>MOLECULE
*****
 20 21 0 0 0
SMALL
GASTEIGER

@<TRIPOS>ATOM
      1 C         141.6887  140.6321  166.6232 C.2     1  UNL1        0.1535
      2 N         140.5814  141.6057  166.3478 N.2     1  UNL1       -0.2470
      3 C         139.7272  141.0387  165.2530 C.3     1  UNL1        0.1723
      4 C         138.4966  141.5570  164.5696 C.3     1  UNL1        0.1701
      5 C         137.8453  140.7512  163.4848 C.3     1  UNL1        0.1691
      6 O         136.6148  141.2695  162.8014 O.3     1  UNL1       -0.3794
      7 C         138.4247  139.4270  163.0836 C.3     1  UNL1        0.1746
      8 O         139.6553  138.9087  163.7671 O.3     1  UNL1       -0.3402
      9 C         140.3065  139.7145  164.8517 C.3     1  UNL1        0.1938
     10 S         141.5188  139.4632  165.6986 S.3     1  UNL1       -0.0497
     11 H         136.3749  142.1310  163.1772 H       1  UNL1        0.2105
     12 C         137.7734  138.6212  161.9990 C.3     1  UNL1        0.1693
     13 O         136.9640  139.3067  160.9384 O.3     1  UNL1       -0.3794
     14 H         136.1760  139.7051  161.3400 H       1  UNL1        0.2105
     15 N         142.7752  140.7981  167.6440 N.pl3   1  UNL1       -0.3135
     16 H         143.6669  140.4141  167.4807 H       1  UNL1        0.1487
     17 C         143.6138  142.2849  169.6026 C.3     1  UNL1        0.0230
     18 C         142.5030  141.5490  168.9136 C.3     1  UNL1        0.0887
     19 O         137.9173  142.8812  164.9708 O.3     1  UNL1       -0.3489
     20 C         138.5312  144.1527  164.4647 C.3     1  UNL1        0.1742
@<TRIPOS>BOND
     1    17    18    1
     2    18    15    1
     3    15     1    1
     4     1     2    2
     5     3     2    1
     6     3     4    1
     7     4    19    1
     8    19    20    1
     9     4     5    1
    10     5     6    1
    11     5     7    1
    12     7    12    1
    13    12    13    1
    14     7     8    1
    15     9     8    1
    16     9    10    1
    17    10     1    1
    18     9     3    1
    19    15    16    1
    20     6    11    1
    21    13    14    1
@<TRIPOS>MOLECULE
*****
 20 21 0 0 0
SMALL
GASTEIGER

@<TRIPOS>ATOM
      1 C         142.4601  141.5326  164.5959 C.2     1  UNL1        0.1535
      2 N         141.1617  140.7815  164.6088 N.2     1  UNL1       -0.2470
      3 C         140.7237  140.6373  166.0362 C.3     1  UNL1        0.1723
      4 C         139.5219  139.9888  166.6567 C.3     1  UNL1        0.1701
      5 C         139.3477  140.0022  168.1465 C.3     1  UNL1        0.1691
      6 O         138.1459  139.3537  168.7670 O.3     1  UNL1       -0.3794
      7 C         140.3754  140.6642  169.0158 C.3     1  UNL1        0.1746
      8 O         141.5772  141.3128  168.3953 O.3     1  UNL1       -0.3402
      9 C         141.7514  141.2993  166.9055 C.3     1  UNL1        0.1938
     10 S         142.8245  141.8526  166.0153 S.3     1  UNL1       -0.0497
     11 H         137.5864  138.9761  168.0703 H       1  UNL1        0.2105
     12 C         140.2012  140.6777  170.5056 C.3     1  UNL1        0.1693
     13 O         139.8062  139.4227  171.2259 O.3     1  UNL1       -0.3794
     14 H         138.9093  139.1659  170.9600 H       1  UNL1        0.2105
     15 N         143.2545  141.8992  163.3775 N.pl3   1  UNL1       -0.3135
     16 H         142.9547  142.6363  162.7979 H       1  UNL1        0.1487
     17 C         145.8139  141.5485  163.6541 C.3     1  UNL1        0.0230
     18 C         144.5057  141.1429  163.0424 C.3     1  UNL1        0.0887
     19 O         138.4943  139.3268  165.7874 O.3     1  UNL1       -0.3489
     20 C         138.7748  137.9816  165.1859 C.3     1  UNL1        0.1742
@<TRIPOS>BOND
     1    17    18    1
     2    18    15    1
     3    15     1    1
     4     1     2    2
     5     3     2    1
     6     3     4    1
     7     4    19    1
     8    19    20    1
     9     4     5    1
    10     5     6    1
    11     5     7    1
    12     7    12    1
    13    12    13    1
    14     7     8    1
    15     9     8    1
    16     9    10    1
    17    10     1    1
    18     9     3    1
    19    15    16    1
    20     6    11    1
    21    13    14    1
@<TRIPOS>MOLECULE
*****
 20 21 0 0 0
SMALL
GASTEIGER

@<TRIPOS>ATOM
      1 C         140.6406  141.6166  165.3902 C.2     1  UNL1        0.1535
      2 N         140.1830  142.2138  166.6878 N.2     1  UNL1       -0.2470
      3 C         140.8122  141.4344  167.8043 C.3     1  UNL1        0.1723
      4 C         140.7236  141.5677  169.2957 C.3     1  UNL1        0.1701
      5 C         141.4816  140.6220  170.1796 C.3     1  UNL1        0.1691
      6 O         141.3931  140.7554  171.6710 O.3     1  UNL1       -0.3794
      7 C         142.3281  139.5430  169.5720 C.3     1  UNL1        0.1746
      8 O         142.4166  139.4097  168.0805 O.3     1  UNL1       -0.3402
      9 C         141.6587  140.3554  167.1967 C.3     1  UNL1        0.1938
     10 S         141.5526  140.4680  165.7047 S.3     1  UNL1       -0.0497
     11 H         140.8093  141.4968  171.8953 H       1  UNL1        0.2105
     12 C         143.0861  138.5974  170.4558 C.3     1  UNL1        0.1693
     13 O         144.0490  139.1315  171.4744 O.3     1  UNL1       -0.3794
     14 H         144.7917  139.5621  171.0227 H       1  UNL1        0.2105
     15 N         140.2540  142.0856  164.0188 N.pl3   1  UNL1       -0.3135
     16 H         140.7765  141.7990  163.2351 H       1  UNL1        0.1487
     17 C         137.6846  142.4670  164.0685 C.3     1  UNL1        0.0230
     18 C         139.0716  142.9912  163.8415 C.3     1  UNL1        0.0887
     19 O         139.8771  142.6467  169.9033 O.3     1  UNL1       -0.3489
     20 C         140.3934  144.0531  169.9765 C.3     1  UNL1        0.1742
@<TRIPOS>BOND
     1    17    18    1
     2    18    15    1
     3    15     1    1
     4     1     2    2
     5     3     2    1
     6     3     4    1
     7     4    19    1
     8    19    20    1
     9     4     5    1
    10     5     6    1
    11     5     7    1
    12     7    12    1
    13    12    13    1
    14     7     8    1
    15     9     8    1
    16     9    10    1
    17    10     1    1
    18     9     3    1
    19    15    16    1
    20     6    11    1
    21    13    14    1
@<TRIPOS>MOLECULE
*****
 20 21 0 0 0
SMALL
GASTEIGER

@<TRIPOS>ATOM
      1 C         142.2007  141.1939  165.3452 C.2     1  UNL1        0.1535
      2 N         140.7235  141.1111  165.0980 N.2     1  UNL1       -0.2470
      3 C         140.3108  142.3384  164.3407 C.3     1  UNL1        0.1723
      4 C         138.9801  142.7986  163.8237 C.3     1  UNL1        0.1701
      5 C         138.8714  144.1000  163.0858 C.3     1  UNL1        0.1691
      6 O         137.5406  144.5602  162.5688 O.3     1  UNL1       -0.3794
      7 C         140.0935  144.9413  162.8650 C.3     1  UNL1        0.1746
      8 O         141.4242  144.4811  163.3820 O.3     1  UNL1       -0.3402
      9 C         141.5329  143.1796  164.1198 C.3     1  UNL1        0.1938
     10 S         142.7009  142.4723  164.7407 S.3     1  UNL1       -0.0497
     11 H         136.8619  143.9052  162.7948 H       1  UNL1        0.2105
     12 C         139.9848  146.2427  162.1271 C.3     1  UNL1        0.1693
     13 O         139.3194  146.2899  160.7836 O.3     1  UNL1       -0.3794
     14 H         139.8453  145.7843  160.1444 H       1  UNL1        0.2105
     15 N         143.0318  140.1768  166.0697 N.pl3   1  UNL1       -0.3135
     16 H         143.9243  139.9380  165.7298 H       1  UNL1        0.1487
     17 C         142.6426  140.2104  168.6382 C.3     1  UNL1        0.0230
     18 C         142.5029  139.5236  167.3121 C.3     1  UNL1        0.0887
     19 O         137.7580  141.9573  164.0445 O.3     1  UNL1       -0.3489
     20 C         137.4247  140.8525  163.0862 C.3     1  UNL1        0.1742
@<TRIPOS>BOND
     1    17    18    1
     2    18    15    1
     3    15     1    1
     4     1     2    2
     5     3     2    1
     6     3     4    1
     7     4    19    1
     8    19    20    1
     9     4     5    1
    10     5     6    1
    11     5     7    1
    12     7    12    1
    13    12    13    1
    14     7     8    1
    15     9     8    1
    16     9    10    1
    17    10     1    1
    18     9     3    1
    19    15    16    1
    20     6    11    1
    21    13    14    1
