@<TRIPOS>MOLECULE
*****
 43 46 0 0 0
SMALL
GASTEIGER

@<TRIPOS>ATOM
      1 C         141.2394  137.2683  164.3270 C.3     1  UNL1        0.0038
      2 C         139.8225  137.6604  164.0296 C.3     1  UNL1        0.0474
      3 C         138.8371  137.8183  165.1495 C.3     1  UNL1        0.2071
      4 O         138.1609  139.1385  165.3729 O.3     1  UNL1       -0.4602
      5 C         138.9728  140.3989  165.4173 C.ar    1  UNL1        0.2248
      6 C         139.0432  141.2886  164.2117 C.ar    1  UNL1        0.0577
      7 C         139.8551  142.5491  164.2562 C.ar    1  UNL1        0.0061
      8 C         140.5967  142.9199  165.5062 C.ar    1  UNL1        0.0194
      9 C         140.5263  142.0302  166.7118 C.ar    1  UNL1        0.0844
     10 N         139.7144  140.7697  166.6674 N.ar    1  UNL1       -0.2117
     11 C         141.2679  142.4010  167.9619 C.ar    1  UNL1        0.0178
     12 C         140.5781  143.1853  169.0384 C.ar    1  UNL1        0.0015
     13 C         141.3197  143.5561  170.2884 C.ar    1  UNL1        0.0000
     14 C         142.7511  143.1426  170.4618 C.ar    1  UNL1        0.0000
     15 C         143.4409  142.3583  169.3853 C.ar    1  UNL1        0.0000
     16 C         142.6993  141.9875  168.1353 C.ar    1  UNL1        0.0015
     17 C         139.9255  143.4388  163.0506 C.ar    1  UNL1        0.0002
     18 C         139.6198  142.8845  161.6906 C.ar    1  UNL1        0.0000
     19 C         139.6902  143.7742  160.4850 C.ar    1  UNL1        0.0000
     20 C         140.0662  145.2181  160.6393 C.ar    1  UNL1        0.0000
     21 C         140.3719  145.7723  161.9992 C.ar    1  UNL1        0.0000
     22 C         140.3016  144.8826  163.2048 C.ar    1  UNL1        0.0000
     23 C         142.0833  138.1274  165.2213 C.3     1  UNL1        0.0005
     24 C         142.2750  139.5806  164.9025 C.3     1  UNL1        0.0047
     25 C         143.5518  140.0472  164.2686 C.3     1  UNL1        0.0261
     26 C         143.4353  143.2763  161.9644 C.ar    1  UNL1        0.1342
     27 C         143.9593  144.3174  162.9086 C.ar    1  UNL1        0.0365
     28 C         144.3476  143.9350  164.3061 C.ar    1  UNL1        0.0028
     29 C         144.2118  142.5117  164.7595 C.ar    1  UNL1       -0.0044
     30 C         143.6877  141.4706  163.8153 C.ar    1  UNL1       -0.0232
     31 C         143.2994  141.8530  162.4177 C.ar    1  UNL1        0.0082
     32 C         142.7753  140.8119  161.4735 C.3     1  UNL1        0.0350
     33 C         143.7211  139.8496  160.8181 C.3     1  UNL1        0.0465
     34 C         143.4001  138.3846  160.7894 C.2     1  UNL1        0.0507
     35 O         144.3315  137.4000  161.4323 O.co2   1  UNL1       -0.5492
     36 O         142.1479  137.9042  160.1179 O.co2   1  UNL1       -0.5492
     37 O         143.0470  143.6587  160.5669 O.3     1  UNL1       -0.4758
     38 C         143.8485  143.1578  159.4022 C.3     1  UNL1        0.2058
     39 C         143.1698  142.8560  158.0990 C.3     1  UNL1        0.0532
     40 C         142.0037  143.6863  157.6508 C.3     1  UNL1        0.0455
     41 O         142.2211  145.3093  155.6336 O.co2   1  UNL1       -0.5492
     42 C         142.2295  145.0688  157.1143 C.2     1  UNL1        0.0505
     43 O         142.4636  146.2107  158.0583 O.co2   1  UNL1       -0.5492
@<TRIPOS>UNITY_ATOM_ATTR
35 1
charge -1
41 1
charge -1
@<TRIPOS>BOND
     1    41    42   ar
     2    42    43   ar
     3    42    40    1
     4    40    39    1
     5    39    38    1
     6    38    37    1
     7    37    26    1
     8    26    27   ar
     9    27    28   ar
    10    28    29   ar
    11    29    30   ar
    12    30    25    1
    13    25    24    1
    14    24    23    1
    15    23     1    1
    16     1     2    1
    17     2     3    1
    18     3     4    1
    19     4     5    1
    20     5     6   ar
    21     6     7   ar
    22     7    17    1
    23    17    18   ar
    24    18    19   ar
    25    19    20   ar
    26    20    21   ar
    27    21    22   ar
    28     7     8   ar
    29     8     9   ar
    30     9    11    1
    31    11    12   ar
    32    12    13   ar
    33    13    14   ar
    34    14    15   ar
    35    15    16   ar
    36     9    10   ar
    37    30    31   ar
    38    31    32    1
    39    32    33    1
    40    33    34    1
    41    34    35   ar
    42    34    36   ar
    43    31    26   ar
    44    10     5   ar
    45    22    17   ar
    46    16    11   ar
@<TRIPOS>MOLECULE
*****
 43 46 0 0 0
SMALL
GASTEIGER

@<TRIPOS>ATOM
      1 C         137.2100  141.5743  162.8761 C.3     1  UNL1        0.0038
      2 C         137.4209  142.4607  164.0676 C.3     1  UNL1        0.0474
      3 C         137.9154  143.8644  163.8801 C.3     1  UNL1        0.2071
      4 O         138.1225  144.4082  162.4976 O.3     1  UNL1       -0.4602
      5 C         139.4579  144.2684  161.8290 C.ar    1  UNL1        0.2248
      6 C         140.6264  143.7219  162.5945 C.ar    1  UNL1        0.0577
      7 C         141.9619  143.5822  161.9258 C.ar    1  UNL1        0.0061
      8 C         142.1289  143.9889  160.4917 C.ar    1  UNL1        0.0194
      9 C         140.9604  144.5354  159.7262 C.ar    1  UNL1        0.0844
     10 N         139.6249  144.6752  160.3948 N.ar    1  UNL1       -0.2117
     11 C         141.1274  144.9422  158.2921 C.ar    1  UNL1        0.0178
     12 C         142.2402  144.3598  157.4721 C.ar    1  UNL1        0.0015
     13 C         142.4072  144.7666  156.0380 C.ar    1  UNL1        0.0000
     14 C         141.4613  145.7557  155.4239 C.ar    1  UNL1        0.0000
     15 C         140.3485  146.3380  156.2439 C.ar    1  UNL1        0.0000
     16 C         140.1815  145.9312  157.6780 C.ar    1  UNL1        0.0015
     17 C         143.1304  143.0357  162.6913 C.ar    1  UNL1        0.0002
     18 C         143.1091  143.0326  164.1912 C.ar    1  UNL1        0.0000
     19 C         144.2776  142.4861  164.9567 C.ar    1  UNL1        0.0000
     20 C         145.4673  141.9427  164.2223 C.ar    1  UNL1        0.0000
     21 C         145.4886  141.9457  162.7225 C.ar    1  UNL1        0.0000
     22 C         144.3201  142.4922  161.9570 C.ar    1  UNL1        0.0000
     23 C         138.3020  140.6493  162.4269 C.3     1  UNL1        0.0005
     24 C         137.9730  139.2453  162.0137 C.3     1  UNL1        0.0047
     25 C         138.9687  138.1456  162.2350 C.3     1  UNL1        0.0261
     26 C         141.9578  138.6944  164.7873 C.ar    1  UNL1        0.1342
     27 C         143.0572  139.1038  163.8525 C.ar    1  UNL1        0.0365
     28 C         142.7937  139.1938  162.3786 C.ar    1  UNL1        0.0028
     29 C         141.4309  138.8744  161.8394 C.ar    1  UNL1       -0.0044
     30 C         140.3316  138.4650  162.7741 C.ar    1  UNL1       -0.0232
     31 C         140.5950  138.3750  164.2481 C.ar    1  UNL1        0.0082
     32 C         139.4956  137.9656  165.1829 C.3     1  UNL1        0.0350
     33 C         138.6309  139.0089  165.8262 C.3     1  UNL1        0.0465
     34 C         138.0063  138.7445  167.1640 C.2     1  UNL1        0.0507
     35 O         138.5540  139.4093  168.3921 O.co2   1  UNL1       -0.5492
     36 O         136.8339  137.8152  167.2739 O.co2   1  UNL1       -0.5492
     37 O         142.2213  138.6045  166.2612 O.3     1  UNL1       -0.4758
     38 C         142.6859  139.8150  167.0153 C.3     1  UNL1        0.2058
     39 C         141.8255  140.4022  168.0947 C.3     1  UNL1        0.0532
     40 C         141.6923  141.8910  168.2208 C.3     1  UNL1        0.0455
     41 O         141.7872  143.2859  170.4107 O.co2   1  UNL1       -0.5492
     42 C         142.4863  142.6298  169.2570 C.2     1  UNL1        0.0505
     43 O         143.9794  142.7127  169.1395 O.co2   1  UNL1       -0.5492
@<TRIPOS>UNITY_ATOM_ATTR
35 1
charge -1
41 1
charge -1
@<TRIPOS>BOND
     1    41    42   ar
     2    42    43   ar
     3    42    40    1
     4    40    39    1
     5    39    38    1
     6    38    37    1
     7    37    26    1
     8    26    27   ar
     9    27    28   ar
    10    28    29   ar
    11    29    30   ar
    12    30    25    1
    13    25    24    1
    14    24    23    1
    15    23     1    1
    16     1     2    1
    17     2     3    1
    18     3     4    1
    19     4     5    1
    20     5     6   ar
    21     6     7   ar
    22     7    17    1
    23    17    18   ar
    24    18    19   ar
    25    19    20   ar
    26    20    21   ar
    27    21    22   ar
    28     7     8   ar
    29     8     9   ar
    30     9    11    1
    31    11    12   ar
    32    12    13   ar
    33    13    14   ar
    34    14    15   ar
    35    15    16   ar
    36     9    10   ar
    37    30    31   ar
    38    31    32    1
    39    32    33    1
    40    33    34    1
    41    34    35   ar
    42    34    36   ar
    43    31    26   ar
    44    10     5   ar
    45    22    17   ar
    46    16    11   ar
@<TRIPOS>MOLECULE
*****
 43 46 0 0 0
SMALL
GASTEIGER

@<TRIPOS>ATOM
      1 C         141.5144  137.6159  164.7421 C.3     1  UNL1        0.0038
      2 C         140.1567  137.7194  164.1128 C.3     1  UNL1        0.0474
      3 C         138.9325  137.7864  164.9772 C.3     1  UNL1        0.2071
      4 O         138.2383  139.0982  165.1939 O.3     1  UNL1       -0.4602
      5 C         139.0366  140.3660  165.2680 C.ar    1  UNL1        0.2248
      6 C         139.7677  140.7193  166.5292 C.ar    1  UNL1        0.0577
      7 C         140.5660  141.9871  166.6031 C.ar    1  UNL1        0.0061
      8 C         140.6332  142.9015  165.4160 C.ar    1  UNL1        0.0194
      9 C         139.9021  142.5481  164.1548 C.ar    1  UNL1        0.0844
     10 N         139.1038  141.2804  164.0808 N.ar    1  UNL1       -0.2117
     11 C         139.9692  143.4626  162.9676 C.ar    1  UNL1        0.0178
     12 C         140.1860  144.9336  163.1653 C.ar    1  UNL1        0.0015
     13 C         140.2532  145.8479  161.9781 C.ar    1  UNL1        0.0000
     14 C         140.1036  145.2913  160.5933 C.ar    1  UNL1        0.0000
     15 C         139.8868  143.8203  160.3956 C.ar    1  UNL1        0.0000
     16 C         139.8197  142.9059  161.5828 C.ar    1  UNL1        0.0015
     17 C         141.2972  142.3405  167.8643 C.ar    1  UNL1        0.0002
     18 C         142.7339  141.9444  168.0344 C.ar    1  UNL1        0.0000
     19 C         143.4651  142.2978  169.2956 C.ar    1  UNL1        0.0000
     20 C         142.7594  143.0473  170.3867 C.ar    1  UNL1        0.0000
     21 C         141.3227  143.4433  170.2166 C.ar    1  UNL1        0.0000
     22 C         140.5916  143.0900  168.9554 C.ar    1  UNL1        0.0000
     23 C         142.3036  138.8582  165.0312 C.3     1  UNL1        0.0005
     24 C         143.7679  138.7612  165.3419 C.3     1  UNL1        0.0047
     25 C         144.7628  139.5143  164.5095 C.3     1  UNL1        0.0261
     26 C         143.5669  141.8496  161.5318 C.ar    1  UNL1        0.1342
     27 C         143.4765  143.1745  162.2294 C.ar    1  UNL1        0.0365
     28 C         143.8149  143.2793  163.6869 C.ar    1  UNL1        0.0028
     29 C         144.2437  142.0593  164.4470 C.ar    1  UNL1       -0.0044
     30 C         144.3340  140.7344  163.7494 C.ar    1  UNL1       -0.0232
     31 C         143.9956  140.6296  162.2919 C.ar    1  UNL1        0.0082
     32 C         144.0860  139.3047  161.5943 C.3     1  UNL1        0.0350
     33 C         142.8512  138.4770  161.3937 C.3     1  UNL1        0.0465
     34 C         142.2442  138.3546  160.0275 C.2     1  UNL1        0.0507
     35 O         140.8255  138.7834  159.7959 O.co2   1  UNL1       -0.5492
     36 O         143.0558  137.8034  158.8928 O.co2   1  UNL1       -0.5492
     37 O         143.2285  141.7448  160.0743 O.3     1  UNL1       -0.4758
     38 C         143.2477  142.9705  159.2098 C.3     1  UNL1        0.2058
     39 C         144.0890  142.9995  157.9683 C.3     1  UNL1        0.0532
     40 C         145.1108  141.9276  157.7295 C.3     1  UNL1        0.0455
     41 O         147.4747  142.9620  157.4256 O.co2   1  UNL1       -0.5492
     42 C         146.3046  142.2086  156.8658 C.2     1  UNL1        0.0505
     43 O         146.3283  141.7361  155.4424 O.co2   1  UNL1       -0.5492
@<TRIPOS>UNITY_ATOM_ATTR
35 1
charge -1
41 1
charge -1
@<TRIPOS>BOND
     1    41    42   ar
     2    42    43   ar
     3    42    40    1
     4    40    39    1
     5    39    38    1
     6    38    37    1
     7    37    26    1
     8    26    27   ar
     9    27    28   ar
    10    28    29   ar
    11    29    30   ar
    12    30    25    1
    13    25    24    1
    14    24    23    1
    15    23     1    1
    16     1     2    1
    17     2     3    1
    18     3     4    1
    19     4     5    1
    20     5     6   ar
    21     6     7   ar
    22     7    17    1
    23    17    18   ar
    24    18    19   ar
    25    19    20   ar
    26    20    21   ar
    27    21    22   ar
    28     7     8   ar
    29     8     9   ar
    30     9    11    1
    31    11    12   ar
    32    12    13   ar
    33    13    14   ar
    34    14    15   ar
    35    15    16   ar
    36     9    10   ar
    37    30    31   ar
    38    31    32    1
    39    32    33    1
    40    33    34    1
    41    34    35   ar
    42    34    36   ar
    43    31    26   ar
    44    10     5   ar
    45    22    17   ar
    46    16    11   ar
@<TRIPOS>MOLECULE
*****
 43 46 0 0 0
SMALL
GASTEIGER

@<TRIPOS>ATOM
      1 C         138.6932  139.8894  168.9764 C.3     1  UNL1        0.0038
      2 C         139.7090  140.4952  169.8989 C.3     1  UNL1        0.0474
      3 C         139.5875  141.9333  170.3078 C.3     1  UNL1        0.2071
      4 O         140.2130  143.0072  169.4679 O.3     1  UNL1       -0.4602
      5 C         140.6098  142.7155  168.0511 C.ar    1  UNL1        0.2248
      6 C         139.9983  143.4955  166.9251 C.ar    1  UNL1        0.0577
      7 C         140.3952  143.2037  165.5083 C.ar    1  UNL1        0.0061
      8 C         141.4035  142.1320  165.2174 C.ar    1  UNL1        0.0194
      9 C         142.0150  141.3519  166.3433 C.ar    1  UNL1        0.0844
     10 N         141.6181  141.6437  167.7601 N.ar    1  UNL1       -0.2117
     11 C         143.0233  140.2802  166.0524 C.ar    1  UNL1        0.0178
     12 C         143.0819  139.0523  166.9119 C.ar    1  UNL1        0.0015
     13 C         144.0902  137.9806  166.6210 C.ar    1  UNL1        0.0000
     14 C         145.0399  138.1367  165.4704 C.ar    1  UNL1        0.0000
     15 C         144.9813  139.3646  164.6108 C.ar    1  UNL1        0.0000
     16 C         143.9730  140.4363  164.9018 C.ar    1  UNL1        0.0015
     17 C         139.7837  143.9837  164.3824 C.ar    1  UNL1        0.0002
     18 C         140.6378  144.8929  163.5493 C.ar    1  UNL1        0.0000
     19 C         140.0263  145.6730  162.4233 C.ar    1  UNL1        0.0000
     20 C         138.5608  145.5437  162.1305 C.ar    1  UNL1        0.0000
     21 C         137.7068  144.6345  162.9636 C.ar    1  UNL1        0.0000
     22 C         138.3183  143.8545  164.0895 C.ar    1  UNL1        0.0000
     23 C         139.1010  139.4351  167.6062 C.3     1  UNL1        0.0005
     24 C         138.0682  139.2776  166.5299 C.3     1  UNL1        0.0047
     25 C         138.3781  139.7023  165.1251 C.3     1  UNL1        0.0261
     26 C         141.1333  139.0219  162.3508 C.ar    1  UNL1        0.1342
     27 C         141.7821  137.7831  162.8935 C.ar    1  UNL1        0.0365
     28 C         141.2963  137.1841  164.1800 C.ar    1  UNL1        0.0028
     29 C         140.1616  137.8238  164.9239 C.ar    1  UNL1       -0.0044
     30 C         139.5128  139.0625  164.3812 C.ar    1  UNL1       -0.0232
     31 C         139.9986  139.6615  163.0947 C.ar    1  UNL1        0.0082
     32 C         139.3497  140.9003  162.5520 C.3     1  UNL1        0.0350
     33 C         138.0341  140.8064  161.8377 C.3     1  UNL1        0.0465
     34 C         137.7381  139.6241  160.9634 C.2     1  UNL1        0.0507
     35 O         137.3761  138.3061  161.5814 O.co2   1  UNL1       -0.5492
     36 O         137.8041  139.7597  159.4710 O.co2   1  UNL1       -0.5492
     37 O         141.6191  139.6209  161.0643 O.3     1  UNL1       -0.4758
     38 C         143.0519  139.4538  160.6531 C.3     1  UNL1        0.2058
     39 C         144.0775  140.4608  161.0820 C.3     1  UNL1        0.0532
     40 C         143.6587  141.8615  161.4178 C.3     1  UNL1        0.0455
     41 O         144.2155  142.6767  159.0146 O.co2   1  UNL1       -0.5492
     42 C         143.5253  142.8856  160.3300 C.2     1  UNL1        0.0505
     43 O         142.7019  144.1185  160.5574 O.co2   1  UNL1       -0.5492
@<TRIPOS>UNITY_ATOM_ATTR
35 1
charge -1
41 1
charge -1
@<TRIPOS>BOND
     1    41    42   ar
     2    42    43   ar
     3    42    40    1
     4    40    39    1
     5    39    38    1
     6    38    37    1
     7    37    26    1
     8    26    27   ar
     9    27    28   ar
    10    28    29   ar
    11    29    30   ar
    12    30    25    1
    13    25    24    1
    14    24    23    1
    15    23     1    1
    16     1     2    1
    17     2     3    1
    18     3     4    1
    19     4     5    1
    20     5     6   ar
    21     6     7   ar
    22     7    17    1
    23    17    18   ar
    24    18    19   ar
    25    19    20   ar
    26    20    21   ar
    27    21    22   ar
    28     7     8   ar
    29     8     9   ar
    30     9    11    1
    31    11    12   ar
    32    12    13   ar
    33    13    14   ar
    34    14    15   ar
    35    15    16   ar
    36     9    10   ar
    37    30    31   ar
    38    31    32    1
    39    32    33    1
    40    33    34    1
    41    34    35   ar
    42    34    36   ar
    43    31    26   ar
    44    10     5   ar
    45    22    17   ar
    46    16    11   ar
@<TRIPOS>MOLECULE
*****
 43 46 0 0 0
SMALL
GASTEIGER

@<TRIPOS>ATOM
      1 C         141.3252  137.8743  164.6943 C.3     1  UNL1        0.0038
      2 C         139.9058  137.6504  164.2640 C.3     1  UNL1        0.0474
      3 C         138.7823  137.8989  165.2263 C.3     1  UNL1        0.2071
      4 O         138.1149  139.2415  165.2696 O.3     1  UNL1       -0.4602
      5 C         138.9441  140.4890  165.3468 C.ar    1  UNL1        0.2248
      6 C         139.6894  140.8175  166.6064 C.ar    1  UNL1        0.0577
      7 C         140.5187  142.0651  166.6835 C.ar    1  UNL1        0.0061
      8 C         140.6026  142.9842  165.5011 C.ar    1  UNL1        0.0194
      9 C         139.8573  142.6557  164.2415 C.ar    1  UNL1        0.0844
     10 N         139.0280  141.4082  164.1643 N.ar    1  UNL1       -0.2117
     11 C         139.9412  143.5749  163.0590 C.ar    1  UNL1        0.0178
     12 C         140.1577  145.0447  163.2655 C.ar    1  UNL1        0.0015
     13 C         140.2416  145.9638  162.0831 C.ar    1  UNL1        0.0000
     14 C         140.1090  145.4131  160.6942 C.ar    1  UNL1        0.0000
     15 C         139.8925  143.9433  160.4877 C.ar    1  UNL1        0.0000
     16 C         139.8086  143.0242  161.6701 C.ar    1  UNL1        0.0015
     17 C         141.2640  142.3935  167.9431 C.ar    1  UNL1        0.0002
     18 C         142.7163  142.0398  168.0692 C.ar    1  UNL1        0.0000
     19 C         143.4616  142.3682  169.3288 C.ar    1  UNL1        0.0000
     20 C         142.7547  143.0504  170.4624 C.ar    1  UNL1        0.0000
     21 C         141.3025  143.4041  170.3363 C.ar    1  UNL1        0.0000
     22 C         140.5571  143.0757  169.0767 C.ar    1  UNL1        0.0000
     23 C         142.0591  139.1040  164.2479 C.3     1  UNL1        0.0005
     24 C         143.0497  139.7601  165.1636 C.3     1  UNL1        0.0047
     25 C         144.2646  140.4323  164.5962 C.3     1  UNL1        0.0261
     26 C         144.1241  143.2167  161.7717 C.ar    1  UNL1        0.1342
     27 C         143.8880  144.4464  162.5974 C.ar    1  UNL1        0.0365
     28 C         143.7774  144.3382  164.0894 C.ar    1  UNL1        0.0028
     29 C         143.9029  143.0002  164.7557 C.ar    1  UNL1       -0.0044
     30 C         144.1390  141.7704  163.9300 C.ar    1  UNL1       -0.0232
     31 C         144.2496  141.8787  162.4380 C.ar    1  UNL1        0.0082
     32 C         144.4858  140.6488  161.6122 C.3     1  UNL1        0.0350
     33 C         143.3339  139.9683  160.9340 C.3     1  UNL1        0.0465
     34 C         143.3757  138.4891  160.6885 C.2     1  UNL1        0.0507
     35 O         144.1287  137.5940  161.6275 O.co2   1  UNL1       -0.5492
     36 O         142.6644  137.9051  159.5040 O.co2   1  UNL1       -0.5492
     37 O         144.2347  143.3249  160.2797 O.3     1  UNL1       -0.4758
     38 C         143.0189  143.1358  159.4218 C.3     1  UNL1        0.2058
     39 C         142.8141  143.9970  158.2109 C.3     1  UNL1        0.0532
     40 C         141.9466  143.5152  157.0859 C.3     1  UNL1        0.0455
     41 O         141.2231  144.7965  154.9447 O.co2   1  UNL1       -0.5492
     42 C         141.0178  144.4683  156.3939 C.2     1  UNL1        0.0505
     43 O         139.8837  145.0932  157.1511 O.co2   1  UNL1       -0.5492
@<TRIPOS>UNITY_ATOM_ATTR
35 1
charge -1
41 1
charge -1
@<TRIPOS>BOND
     1    41    42   ar
     2    42    43   ar
     3    42    40    1
     4    40    39    1
     5    39    38    1
     6    38    37    1
     7    37    26    1
     8    26    27   ar
     9    27    28   ar
    10    28    29   ar
    11    29    30   ar
    12    30    25    1
    13    25    24    1
    14    24    23    1
    15    23     1    1
    16     1     2    1
    17     2     3    1
    18     3     4    1
    19     4     5    1
    20     5     6   ar
    21     6     7   ar
    22     7    17    1
    23    17    18   ar
    24    18    19   ar
    25    19    20   ar
    26    20    21   ar
    27    21    22   ar
    28     7     8   ar
    29     8     9   ar
    30     9    11    1
    31    11    12   ar
    32    12    13   ar
    33    13    14   ar
    34    14    15   ar
    35    15    16   ar
    36     9    10   ar
    37    30    31   ar
    38    31    32    1
    39    32    33    1
    40    33    34    1
    41    34    35   ar
    42    34    36   ar
    43    31    26   ar
    44    10     5   ar
    45    22    17   ar
    46    16    11   ar
@<TRIPOS>MOLECULE
*****
 43 46 0 0 0
SMALL
GASTEIGER

@<TRIPOS>ATOM
      1 C         142.9456  137.6363  160.2690 C.3     1  UNL1        0.0038
      2 C         142.7394  138.4111  159.0012 C.3     1  UNL1        0.0474
      3 C         141.4904  138.2112  158.1949 C.3     1  UNL1        0.2071
      4 O         140.1497  138.2508  158.8664 O.3     1  UNL1       -0.4602
      5 C         139.8976  139.2226  159.9808 C.ar    1  UNL1        0.2248
      6 C         140.0344  140.6962  159.7362 C.ar    1  UNL1        0.0577
      7 C         139.7822  141.6680  160.8507 C.ar    1  UNL1        0.0061
      8 C         139.3933  141.1662  162.2097 C.ar    1  UNL1        0.0194
      9 C         139.2565  139.6926  162.4543 C.ar    1  UNL1        0.0844
     10 N         139.5086  138.7208  161.3399 N.ar    1  UNL1       -0.2117
     11 C         138.8675  139.1909  163.8134 C.ar    1  UNL1        0.0178
     12 C         138.9356  137.7240  164.1190 C.ar    1  UNL1        0.0015
     13 C         138.5466  137.2223  165.4781 C.ar    1  UNL1        0.0000
     14 C         138.0897  138.1875  166.5314 C.ar    1  UNL1        0.0000
     15 C         138.0217  139.6544  166.2257 C.ar    1  UNL1        0.0000
     16 C         138.4106  140.1561  164.8667 C.ar    1  UNL1        0.0015
     17 C         139.9190  143.1416  160.6061 C.ar    1  UNL1        0.0002
     18 C         140.1512  143.6526  159.2151 C.ar    1  UNL1        0.0000
     19 C         140.2880  145.1262  158.9705 C.ar    1  UNL1        0.0000
     20 C         140.1925  146.0888  160.1170 C.ar    1  UNL1        0.0000
     21 C         139.9603  145.5778  161.5080 C.ar    1  UNL1        0.0000
     22 C         139.8235  144.1042  161.7525 C.ar    1  UNL1        0.0000
     23 C         144.0097  138.0557  161.2395 C.3     1  UNL1        0.0005
     24 C         144.0933  139.4841  161.6897 C.3     1  UNL1        0.0047
     25 C         142.8890  140.1564  162.2792 C.3     1  UNL1        0.0261
     26 C         141.8807  140.9346  166.0380 C.ar    1  UNL1        0.1342
     27 C         141.8753  139.5530  166.6218 C.ar    1  UNL1        0.0365
     28 C         142.2078  138.3724  165.7582 C.ar    1  UNL1        0.0028
     29 C         142.5457  138.5736  164.3107 C.ar    1  UNL1       -0.0044
     30 C         142.5511  139.9552  163.7268 C.ar    1  UNL1       -0.0232
     31 C         142.2186  141.1357  164.5904 C.ar    1  UNL1        0.0082
     32 C         142.2241  142.5175  164.0065 C.3     1  UNL1        0.0350
     33 C         143.5200  143.2518  163.8297 C.3     1  UNL1        0.0465
     34 C         143.7050  144.1764  162.6631 C.2     1  UNL1        0.0507
     35 O         143.3712  143.7107  161.2767 O.co2   1  UNL1       -0.5492
     36 O         144.2238  145.5665  162.8827 O.co2   1  UNL1       -0.5492
     37 O         141.5483  142.1151  166.9016 O.3     1  UNL1       -0.4758
     38 C         141.9408  142.1195  168.3493 C.3     1  UNL1        0.2058
     39 C         141.4108  143.1813  169.2668 C.3     1  UNL1        0.0532
     40 C         140.1284  142.9568  170.0120 C.3     1  UNL1        0.0455
     41 O         140.7266  141.1918  171.8223 O.co2   1  UNL1       -0.5492
     42 C         139.8679  141.6371  170.6758 C.2     1  UNL1        0.0505
     43 O         138.7487  140.7628  170.1932 O.co2   1  UNL1       -0.5492
@<TRIPOS>UNITY_ATOM_ATTR
35 1
charge -1
41 1
charge -1
@<TRIPOS>BOND
     1    41    42   ar
     2    42    43   ar
     3    42    40    1
     4    40    39    1
     5    39    38    1
     6    38    37    1
     7    37    26    1
     8    26    27   ar
     9    27    28   ar
    10    28    29   ar
    11    29    30   ar
    12    30    25    1
    13    25    24    1
    14    24    23    1
    15    23     1    1
    16     1     2    1
    17     2     3    1
    18     3     4    1
    19     4     5    1
    20     5     6   ar
    21     6     7   ar
    22     7    17    1
    23    17    18   ar
    24    18    19   ar
    25    19    20   ar
    26    20    21   ar
    27    21    22   ar
    28     7     8   ar
    29     8     9   ar
    30     9    11    1
    31    11    12   ar
    32    12    13   ar
    33    13    14   ar
    34    14    15   ar
    35    15    16   ar
    36     9    10   ar
    37    30    31   ar
    38    31    32    1
    39    32    33    1
    40    33    34    1
    41    34    35   ar
    42    34    36   ar
    43    31    26   ar
    44    10     5   ar
    45    22    17   ar
    46    16    11   ar
@<TRIPOS>MOLECULE
*****
 43 46 0 0 0
SMALL
GASTEIGER

@<TRIPOS>ATOM
      1 C         138.3036  139.1283  166.0175 C.3     1  UNL1        0.0038
      2 C         138.8172  138.3709  164.8291 C.3     1  UNL1        0.0474
      3 C         139.6623  137.1475  165.0273 C.3     1  UNL1        0.2071
      4 O         140.9404  136.9863  164.2590 O.3     1  UNL1       -0.4602
      5 C         141.3481  138.0239  163.2554 C.ar    1  UNL1        0.2248
      6 C         141.9004  139.3393  163.7188 C.ar    1  UNL1        0.0577
      7 C         142.3081  140.3769  162.7151 C.ar    1  UNL1        0.0061
      8 C         142.1635  140.0991  161.2482 C.ar    1  UNL1        0.0194
      9 C         141.6112  138.7837  160.7849 C.ar    1  UNL1        0.0844
     10 N         141.2035  137.7461  161.7884 N.ar    1  UNL1       -0.2117
     11 C         141.4666  138.5059  159.3179 C.ar    1  UNL1        0.0178
     12 C         140.1015  138.4065  158.7044 C.ar    1  UNL1        0.0015
     13 C         139.9569  138.1287  157.2375 C.ar    1  UNL1        0.0000
     14 C         141.1775  137.9504  156.3840 C.ar    1  UNL1        0.0000
     15 C         142.5427  138.0498  156.9975 C.ar    1  UNL1        0.0000
     16 C         142.6872  138.3276  158.4645 C.ar    1  UNL1        0.0015
     17 C         142.8604  141.6923  163.1785 C.ar    1  UNL1        0.0002
     18 C         143.0157  141.9657  164.6452 C.ar    1  UNL1        0.0000
     19 C         143.5680  143.2811  165.1086 C.ar    1  UNL1        0.0000
     20 C         143.9650  144.3231  164.1052 C.ar    1  UNL1        0.0000
     21 C         143.8098  144.0496  162.6386 C.ar    1  UNL1        0.0000
     22 C         143.2575  142.7343  162.1752 C.ar    1  UNL1        0.0000
     23 C         139.1648  140.1653  166.6754 C.3     1  UNL1        0.0005
     24 C         139.6105  141.3708  165.9018 C.3     1  UNL1        0.0047
     25 C         138.6423  142.0895  165.0097 C.3     1  UNL1        0.0261
     26 C         139.2709  143.8181  161.4930 C.ar    1  UNL1        0.1342
     27 C         140.1588  144.9591  161.8927 C.ar    1  UNL1        0.0365
     28 C         140.5411  145.1436  163.3313 C.ar    1  UNL1        0.0028
     29 C         140.0357  144.1871  164.3703 C.ar    1  UNL1       -0.0044
     30 C         139.1478  143.0461  163.9706 C.ar    1  UNL1       -0.0232
     31 C         138.7654  142.8615  162.5320 C.ar    1  UNL1        0.0082
     32 C         137.8776  141.7205  162.1323 C.3     1  UNL1        0.0350
     33 C         138.4495  140.3418  161.9832 C.3     1  UNL1        0.0465
     34 C         137.7104  139.3050  161.1902 C.2     1  UNL1        0.0507
     35 O         136.9104  139.7099  159.9877 O.co2   1  UNL1       -0.5492
     36 O         137.7714  137.8633  161.5997 O.co2   1  UNL1       -0.5492
     37 O         138.8885  143.6335  160.0543 O.3     1  UNL1       -0.4758
     38 C         139.9527  143.4537  159.0126 C.3     1  UNL1        0.2058
     39 C         140.5358  142.0944  158.7630 C.3     1  UNL1        0.0532
     40 C         141.7933  141.9541  157.9573 C.3     1  UNL1        0.0455
     41 O         143.2073  144.0620  158.5120 O.co2   1  UNL1       -0.5492
     42 C         143.0705  142.5696  158.4473 C.2     1  UNL1        0.0505
     43 O         144.2108  141.6928  158.8724 O.co2   1  UNL1       -0.5492
@<TRIPOS>UNITY_ATOM_ATTR
35 1
charge -1
41 1
charge -1
@<TRIPOS>BOND
     1    41    42   ar
     2    42    43   ar
     3    42    40    1
     4    40    39    1
     5    39    38    1
     6    38    37    1
     7    37    26    1
     8    26    27   ar
     9    27    28   ar
    10    28    29   ar
    11    29    30   ar
    12    30    25    1
    13    25    24    1
    14    24    23    1
    15    23     1    1
    16     1     2    1
    17     2     3    1
    18     3     4    1
    19     4     5    1
    20     5     6   ar
    21     6     7   ar
    22     7    17    1
    23    17    18   ar
    24    18    19   ar
    25    19    20   ar
    26    20    21   ar
    27    21    22   ar
    28     7     8   ar
    29     8     9   ar
    30     9    11    1
    31    11    12   ar
    32    12    13   ar
    33    13    14   ar
    34    14    15   ar
    35    15    16   ar
    36     9    10   ar
    37    30    31   ar
    38    31    32    1
    39    32    33    1
    40    33    34    1
    41    34    35   ar
    42    34    36   ar
    43    31    26   ar
    44    10     5   ar
    45    22    17   ar
    46    16    11   ar
@<TRIPOS>MOLECULE
*****
 43 46 0 0 0
SMALL
GASTEIGER

@<TRIPOS>ATOM
      1 C         139.2943  137.9532  161.6098 C.3     1  UNL1        0.0038
      2 C         139.7956  137.9924  163.0230 C.3     1  UNL1        0.0474
      3 C         138.8835  137.6164  164.1530 C.3     1  UNL1        0.2071
      4 O         138.1501  138.6827  164.9114 O.3     1  UNL1       -0.4602
      5 C         138.8832  139.8995  165.3927 C.ar    1  UNL1        0.2248
      6 C         139.4739  139.9229  166.7714 C.ar    1  UNL1        0.0577
      7 C         140.2070  141.1398  167.2527 C.ar    1  UNL1        0.0061
      8 C         140.3494  142.3334  166.3555 C.ar    1  UNL1        0.0194
      9 C         139.7587  142.3101  164.9768 C.ar    1  UNL1        0.0844
     10 N         139.0256  141.0932  164.4955 N.ar    1  UNL1       -0.2117
     11 C         139.9012  143.5037  164.0796 C.ar    1  UNL1        0.0178
     12 C         141.2566  144.0942  163.8265 C.ar    1  UNL1        0.0015
     13 C         141.3990  145.2878  162.9292 C.ar    1  UNL1        0.0000
     14 C         140.1859  145.8909  162.2851 C.ar    1  UNL1        0.0000
     15 C         138.8305  145.3004  162.5383 C.ar    1  UNL1        0.0000
     16 C         138.6881  144.1068  163.4355 C.ar    1  UNL1        0.0015
     17 C         140.7976  141.1632  168.6313 C.ar    1  UNL1        0.0002
     18 C         142.0287  140.3610  168.9335 C.ar    1  UNL1        0.0000
     19 C         142.6193  140.3843  170.3121 C.ar    1  UNL1        0.0000
     20 C         141.9790  141.2098  171.3885 C.ar    1  UNL1        0.0000
     21 C         140.7480  142.0119  171.0863 C.ar    1  UNL1        0.0000
     22 C         140.1574  141.9886  169.7077 C.ar    1  UNL1        0.0000
     23 C         138.1891  138.8720  161.1804 C.3     1  UNL1        0.0005
     24 C         138.5065  140.1153  160.4035 C.3     1  UNL1        0.0047
     25 C         138.9623  141.3516  161.1202 C.3     1  UNL1        0.0261
     26 C         142.5714  142.8093  160.3459 C.ar    1  UNL1        0.1342
     27 C         142.2350  143.8927  159.3645 C.ar    1  UNL1        0.0365
     28 C         140.8077  144.1290  158.9683 C.ar    1  UNL1        0.0028
     29 C         139.7168  143.2820  159.5535 C.ar    1  UNL1       -0.0044
     30 C         140.0532  142.1987  160.5349 C.ar    1  UNL1       -0.0232
     31 C         141.4805  141.9623  160.9311 C.ar    1  UNL1        0.0082
     32 C         141.8169  140.8789  161.9125 C.3     1  UNL1        0.0350
     33 C         142.5347  139.6453  161.4510 C.3     1  UNL1        0.0465
     34 C         142.6990  139.3777  159.9843 C.2     1  UNL1        0.0507
     35 O         144.0427  139.5412  159.3379 O.co2   1  UNL1       -0.5492
     36 O         141.5196  138.9465  159.1638 O.co2   1  UNL1       -0.5492
     37 O         143.9987  142.5730  160.7420 O.3     1  UNL1       -0.4758
     38 C         144.6197  143.3931  161.8336 C.3     1  UNL1        0.2058
     39 C         144.5320  142.9340  163.2590 C.3     1  UNL1        0.0532
     40 C         145.3305  141.7491  163.7157 C.3     1  UNL1        0.0455
     41 O         145.2448  139.2355  164.3672 O.co2   1  UNL1       -0.5492
     42 C         144.6498  140.6115  164.4176 C.2     1  UNL1        0.0505
     43 O         143.3741  140.8500  165.1698 O.co2   1  UNL1       -0.5492
@<TRIPOS>UNITY_ATOM_ATTR
35 1
charge -1
41 1
charge -1
@<TRIPOS>BOND
     1    41    42   ar
     2    42    43   ar
     3    42    40    1
     4    40    39    1
     5    39    38    1
     6    38    37    1
     7    37    26    1
     8    26    27   ar
     9    27    28   ar
    10    28    29   ar
    11    29    30   ar
    12    30    25    1
    13    25    24    1
    14    24    23    1
    15    23     1    1
    16     1     2    1
    17     2     3    1
    18     3     4    1
    19     4     5    1
    20     5     6   ar
    21     6     7   ar
    22     7    17    1
    23    17    18   ar
    24    18    19   ar
    25    19    20   ar
    26    20    21   ar
    27    21    22   ar
    28     7     8   ar
    29     8     9   ar
    30     9    11    1
    31    11    12   ar
    32    12    13   ar
    33    13    14   ar
    34    14    15   ar
    35    15    16   ar
    36     9    10   ar
    37    30    31   ar
    38    31    32    1
    39    32    33    1
    40    33    34    1
    41    34    35   ar
    42    34    36   ar
    43    31    26   ar
    44    10     5   ar
    45    22    17   ar
    46    16    11   ar
@<TRIPOS>MOLECULE
*****
 43 46 0 0 0
SMALL
GASTEIGER

@<TRIPOS>ATOM
      1 C         138.2192  143.8657  163.6311 C.3     1  UNL1        0.0038
      2 C         139.2200  144.7674  164.2908 C.3     1  UNL1        0.0474
      3 C         140.5597  144.9933  163.6550 C.3     1  UNL1        0.2071
      4 O         140.6527  145.6835  162.3265 O.3     1  UNL1       -0.4602
      5 C         140.7938  144.8762  161.0702 C.ar    1  UNL1        0.2248
      6 C         141.1190  143.4141  161.1507 C.ar    1  UNL1        0.0577
      7 C         141.2601  142.6069  159.8943 C.ar    1  UNL1        0.0061
      8 C         141.0760  143.2617  158.5575 C.ar    1  UNL1        0.0194
      9 C         140.7508  144.7238  158.4769 C.ar    1  UNL1        0.0844
     10 N         140.6097  145.5311  159.7333 N.ar    1  UNL1       -0.2117
     11 C         140.5667  145.3787  157.1400 C.ar    1  UNL1        0.0178
     12 C         139.7133  146.6061  157.0172 C.ar    1  UNL1        0.0015
     13 C         139.5293  147.2609  155.6803 C.ar    1  UNL1        0.0000
     14 C         140.1986  146.6882  154.4662 C.ar    1  UNL1        0.0000
     15 C         141.0519  145.4608  154.5890 C.ar    1  UNL1        0.0000
     16 C         141.2360  144.8060  155.9259 C.ar    1  UNL1        0.0015
     17 C         141.5854  141.1448  159.9749 C.ar    1  UNL1        0.0002
     18 C         142.8734  140.6962  160.5994 C.ar    1  UNL1        0.0000
     19 C         143.1986  139.2341  160.6799 C.ar    1  UNL1        0.0000
     20 C         142.2358  138.2206  160.1359 C.ar    1  UNL1        0.0000
     21 C         140.9479  138.6691  159.5115 C.ar    1  UNL1        0.0000
     22 C         140.6227  140.1312  159.4309 C.ar    1  UNL1        0.0000
     23 C         137.6208  142.7226  164.3960 C.3     1  UNL1        0.0005
     24 C         137.9566  141.3101  164.0187 C.3     1  UNL1        0.0047
     25 C         139.0795  141.0359  163.0627 C.3     1  UNL1        0.0261
     26 C         142.2910  139.0220  164.2376 C.ar    1  UNL1        0.1342
     27 C         141.9125  137.6267  163.8380 C.ar    1  UNL1        0.0365
     28 C         140.5897  137.3678  163.1799 C.ar    1  UNL1        0.0028
     29 C         139.6453  138.5041  162.9215 C.ar    1  UNL1       -0.0044
     30 C         140.0238  139.8995  163.3212 C.ar    1  UNL1       -0.0232
     31 C         141.3467  140.1584  163.9792 C.ar    1  UNL1        0.0082
     32 C         141.7252  141.5538  164.3788 C.3     1  UNL1        0.0350
     33 C         141.3737  142.0642  165.7448 C.3     1  UNL1        0.0465
     34 C         142.1122  141.5570  166.9479 C.2     1  UNL1        0.0507
     35 O         141.7249  140.2475  167.5687 O.co2   1  UNL1       -0.5492
     36 O         143.2380  142.3592  167.5302 O.co2   1  UNL1       -0.5492
     37 O         143.6139  139.2810  164.8957 O.3     1  UNL1       -0.4758
     38 C         144.8252  139.5658  164.0581 C.3     1  UNL1        0.2058
     39 C         145.4444  140.9320  164.0750 C.3     1  UNL1        0.0532
     40 C         145.1520  141.9016  162.9684 C.3     1  UNL1        0.0455
     41 O         144.3947  144.2603  162.1855 O.co2   1  UNL1       -0.5492
     42 C         144.6645  143.2830  163.2910 C.2     1  UNL1        0.0505
     43 O         144.4468  143.6871  164.7191 O.co2   1  UNL1       -0.5492
@<TRIPOS>UNITY_ATOM_ATTR
35 1
charge -1
41 1
charge -1
@<TRIPOS>BOND
     1    41    42   ar
     2    42    43   ar
     3    42    40    1
     4    40    39    1
     5    39    38    1
     6    38    37    1
     7    37    26    1
     8    26    27   ar
     9    27    28   ar
    10    28    29   ar
    11    29    30   ar
    12    30    25    1
    13    25    24    1
    14    24    23    1
    15    23     1    1
    16     1     2    1
    17     2     3    1
    18     3     4    1
    19     4     5    1
    20     5     6   ar
    21     6     7   ar
    22     7    17    1
    23    17    18   ar
    24    18    19   ar
    25    19    20   ar
    26    20    21   ar
    27    21    22   ar
    28     7     8   ar
    29     8     9   ar
    30     9    11    1
    31    11    12   ar
    32    12    13   ar
    33    13    14   ar
    34    14    15   ar
    35    15    16   ar
    36     9    10   ar
    37    30    31   ar
    38    31    32    1
    39    32    33    1
    40    33    34    1
    41    34    35   ar
    42    34    36   ar
    43    31    26   ar
    44    10     5   ar
    45    22    17   ar
    46    16    11   ar
