@<TRIPOS>MOLECULE
*****
 40 45 0 0 0
SMALL
GASTEIGER

@<TRIPOS>ATOM
      1 C         140.3902  145.4662  158.0719 C.3     1  UNL1        0.0294
      2 C         140.2219  144.3109  157.1300 C.3     1  UNL1        0.0666
      3 S         139.2029  143.2491  157.4201 S.3     1  UNL1       -0.0756
      4 C         139.6629  141.1094  160.6257 C.ar    1  UNL1        0.1669
      5 N         138.5705  142.0436  161.0550 N.ar    1  UNL1       -0.1282
      6 N         138.2653  142.9587  159.9064 N.ar    1  UNL1       -0.1221
      7 C         139.1690  142.5903  158.7673 C.ar    1  UNL1        0.1932
      8 N         140.0327  141.4474  159.2118 N.ar    1  UNL1       -0.2884
      9 C         141.0821  140.7626  158.3873 C.3     1  UNL1        0.1340
     10 C         138.1213  138.8872  166.9452 C.3     1  UNL1        0.0521
     11 C         138.6603  139.1723  165.5747 C.ar    1  UNL1        0.0593
     12 C         138.0457  140.2543  164.7371 C.ar    1  UNL1        0.0147
     13 C         138.5848  140.5393  163.3667 C.ar    1  UNL1        0.0028
     14 C         139.7385  139.7424  162.8337 C.ar    1  UNL1        0.0206
     15 C         140.2775  140.0275  161.4632 C.ar    1  UNL1        0.0374
     16 C         141.4311  139.2305  160.9304 C.ar    1  UNL1        0.0031
     17 C         142.0457  138.1485  161.7680 C.ar    1  UNL1        0.0016
     18 C         141.5067  137.8635  163.1384 C.ar    1  UNL1        0.0191
     19 C         140.3531  138.6604  163.6713 C.ar    1  UNL1        0.0810
     20 N         139.8140  138.3753  165.0418 N.ar    1  UNL1       -0.2497
     21 C         141.5690  145.5129  158.9984 C.3     1  UNL1        0.0730
     22 N         141.5043  144.8249  160.3297 N.3     1  UNL1       -0.2720
     23 C         142.5035  143.7268  160.5439 C.3     1  UNL1        0.0768
     24 C         142.6941  142.8584  161.7522 C.3     1  UNL1        0.0434
     25 C         141.9328  142.8738  163.0444 C.ar    1  UNL1       -0.0225
     26 C         142.4469  141.8341  163.9957 C.ar    1  UNL1        0.0178
     27 C         141.8208  141.6819  165.3503 C.ar    1  UNL1        0.1187
     28 N         142.1116  140.7533  166.4918 N.ar    1  UNL1       -0.2121
     29 C         141.1513  141.0668  167.6006 C.ar    1  UNL1        0.2048
     30 O         140.2670  142.1892  167.1444 O.2     1  UNL1       -0.4380
     31 C         140.6807  142.5693  165.7537 C.ar    1  UNL1        0.1701
     32 C         140.1666  143.6090  164.8023 C.ar    1  UNL1        0.0664
     33 BR        139.0266  144.4964  165.2056 Br      1  UNL1       -0.0461
     34 C         140.7927  143.7612  163.4477 C.ar    1  UNL1       -0.0154
     35 C         140.1324  144.8524  162.6584 C.3     1  UNL1        0.0439
     36 C         140.4491  145.3258  161.2707 C.3     1  UNL1        0.0768
     37 C         141.0867  140.3787  168.9319 C.3     1  UNL1        0.0688
     38 C         139.8733  141.1848  169.2897 C.3     1  UNL1        0.0092
     39 C         142.3000  139.5726  168.5742 C.3     1  UNL1        0.0092
     40 C         141.0220  139.6906  170.2631 C.3     1  UNL1        0.0092
@<TRIPOS>BOND
     1    10    11    1
     2    11    12   ar
     3    12    13   ar
     4    13    14   ar
     5    14    15   ar
     6    15     4    1
     7     4     5   ar
     8     5     6   ar
     9     6     7   ar
    10     7     3    1
    11     3     2    1
    12     2     1    1
    13     1    21    1
    14    21    22    1
    15    22    23    1
    16    23    24    1
    17    24    25    1
    18    25    26   ar
    19    26    27   ar
    20    27    28   ar
    21    28    29   ar
    22    29    37    1
    23    37    38    1
    24    37    39    1
    25    37    40    1
    26    29    30   ar
    27    30    31   ar
    28    31    32   ar
    29    32    33    1
    30    32    34   ar
    31    34    35    1
    32    35    36    1
    33     7     8   ar
    34     8     9    1
    35    15    16   ar
    36    16    17   ar
    37    17    18   ar
    38    18    19   ar
    39    19    20   ar
    40    20    11   ar
    41    19    14   ar
    42     8     4   ar
    43    36    22    1
    44    34    25   ar
    45    31    27   ar
@<TRIPOS>MOLECULE
*****
 40 45 0 0 0
SMALL
GASTEIGER

@<TRIPOS>ATOM
      1 C         140.9228  145.1920  158.5688 C.3     1  UNL1        0.0294
      2 C         140.1804  144.2781  157.6394 C.3     1  UNL1        0.0666
      3 S         140.4918  142.8109  157.6229 S.3     1  UNL1       -0.0756
      4 C         140.6579  141.0792  161.0927 C.ar    1  UNL1        0.1669
      5 N         142.0807  140.9495  160.6355 N.ar    1  UNL1       -0.1282
      6 N         142.1916  141.5824  159.2802 N.ar    1  UNL1       -0.1221
      7 C         140.8374  142.1033  158.8996 C.ar    1  UNL1        0.1932
      8 N         139.8896  141.7923  160.0198 N.ar    1  UNL1       -0.2884
      9 C         138.4296  142.1344  160.0601 C.3     1  UNL1        0.1340
     10 C         143.7446  138.0976  166.4623 C.3     1  UNL1        0.0521
     11 C         142.8338  138.7190  165.4453 C.ar    1  UNL1        0.0593
     12 C         143.3904  139.2152  164.1437 C.ar    1  UNL1        0.0147
     13 C         142.4796  139.8365  163.1268 C.ar    1  UNL1        0.0028
     14 C         141.0121  139.9617  163.4112 C.ar    1  UNL1        0.0206
     15 C         140.1013  140.5830  162.3941 C.ar    1  UNL1        0.0374
     16 C         138.6339  140.7081  162.6787 C.ar    1  UNL1        0.0031
     17 C         138.0772  140.2119  163.9802 C.ar    1  UNL1        0.0016
     18 C         138.9880  139.5906  164.9972 C.ar    1  UNL1        0.0191
     19 C         140.4555  139.4655  164.7127 C.ar    1  UNL1        0.0810
     20 N         141.3663  138.8441  165.7298 N.ar    1  UNL1       -0.2497
     21 C         140.2672  145.6742  159.8288 C.3     1  UNL1        0.0730
     22 N         140.5900  145.0207  161.1397 N.3     1  UNL1       -0.2720
     23 C         139.4300  144.8180  162.0689 C.3     1  UNL1        0.0768
     24 C         139.4236  144.2008  163.4361 C.3     1  UNL1        0.0434
     25 C         140.5755  143.6339  164.2116 C.ar    1  UNL1       -0.0225
     26 C         140.1336  143.1128  165.5470 C.ar    1  UNL1        0.0178
     27 C         141.1345  142.5019  166.4824 C.ar    1  UNL1        0.1187
     28 N         140.9957  141.9081  167.8528 N.ar    1  UNL1       -0.2121
     29 C         142.3527  141.4513  168.2998 C.ar    1  UNL1        0.2048
     30 O         143.3303  141.7628  167.2056 O.2     1  UNL1       -0.4380
     31 C         142.5775  142.4121  166.0825 C.ar    1  UNL1        0.1701
     32 C         143.0194  142.9332  164.7470 C.ar    1  UNL1        0.0664
     33 BR        144.4622  142.8435  164.3471 Br      1  UNL1       -0.0461
     34 C         142.0185  143.5441  163.8117 C.ar    1  UNL1       -0.0154
     35 C         142.6657  143.9991  162.5373 C.3     1  UNL1        0.0439
     36 C         142.0299  144.6562  161.3482 C.3     1  UNL1        0.0768
     37 C         142.6754  140.7978  169.6108 C.3     1  UNL1        0.0688
     38 C         141.7418  139.6716  169.2792 C.3     1  UNL1        0.0092
     39 C         143.6091  141.9239  169.9424 C.3     1  UNL1        0.0092
     40 C         142.9981  140.1442  170.9217 C.3     1  UNL1        0.0092
@<TRIPOS>BOND
     1    10    11    1
     2    11    12   ar
     3    12    13   ar
     4    13    14   ar
     5    14    15   ar
     6    15     4    1
     7     4     5   ar
     8     5     6   ar
     9     6     7   ar
    10     7     3    1
    11     3     2    1
    12     2     1    1
    13     1    21    1
    14    21    22    1
    15    22    23    1
    16    23    24    1
    17    24    25    1
    18    25    26   ar
    19    26    27   ar
    20    27    28   ar
    21    28    29   ar
    22    29    37    1
    23    37    38    1
    24    37    39    1
    25    37    40    1
    26    29    30   ar
    27    30    31   ar
    28    31    32   ar
    29    32    33    1
    30    32    34   ar
    31    34    35    1
    32    35    36    1
    33     7     8   ar
    34     8     9    1
    35    15    16   ar
    36    16    17   ar
    37    17    18   ar
    38    18    19   ar
    39    19    20   ar
    40    20    11   ar
    41    19    14   ar
    42     8     4   ar
    43    36    22    1
    44    34    25   ar
    45    31    27   ar
@<TRIPOS>MOLECULE
*****
 40 45 0 0 0
SMALL
GASTEIGER

@<TRIPOS>ATOM
      1 C         140.3389  145.3247  158.2036 C.3     1  UNL1        0.0294
      2 C         140.0542  144.2659  157.1799 C.3     1  UNL1        0.0666
      3 S         139.0444  143.1952  157.4693 S.3     1  UNL1       -0.0756
      4 C         139.4901  140.9962  160.6366 C.ar    1  UNL1        0.1669
      5 N         138.4913  142.0046  161.1220 N.ar    1  UNL1       -0.1282
      6 N         138.2028  142.9510  159.9946 N.ar    1  UNL1       -0.1221
      7 C         139.0233  142.5276  158.8124 C.ar    1  UNL1        0.1932
      8 N         139.8188  141.3195  159.2092 N.ar    1  UNL1       -0.2884
      9 C         140.7753  140.5667  158.3325 C.3     1  UNL1        0.1340
     10 C         138.1204  138.8693  167.0280 C.3     1  UNL1        0.0521
     11 C         138.6053  139.1178  165.6304 C.ar    1  UNL1        0.0593
     12 C         138.0353  140.2506  164.8292 C.ar    1  UNL1        0.0147
     13 C         138.5203  140.4991  163.4316 C.ar    1  UNL1        0.0028
     14 C         139.5751  139.6149  162.8354 C.ar    1  UNL1        0.0206
     15 C         140.0600  139.8635  161.4378 C.ar    1  UNL1        0.0374
     16 C         141.1149  138.9793  160.8417 C.ar    1  UNL1        0.0031
     17 C         141.6848  137.8465  161.6429 C.ar    1  UNL1        0.0016
     18 C         141.1999  137.5980  163.0404 C.ar    1  UNL1        0.0191
     19 C         140.1451  138.4822  163.6367 C.ar    1  UNL1        0.0810
     20 N         139.6602  138.2336  165.0342 N.ar    1  UNL1       -0.2497
     21 C         141.5704  145.2328  159.0551 C.3     1  UNL1        0.0730
     22 N         141.5045  144.5724  160.4003 N.3     1  UNL1       -0.2720
     23 C         140.5256  145.1661  161.3695 C.3     1  UNL1        0.0768
     24 C         140.2266  144.7397  162.7763 C.3     1  UNL1        0.0434
     25 C         140.8327  143.6144  163.5611 C.ar    1  UNL1       -0.0225
     26 C         140.2483  143.5310  164.9401 C.ar    1  UNL1        0.0178
     27 C         140.7186  142.4707  165.8912 C.ar    1  UNL1        0.1187
     28 N         140.3300  142.1445  167.3027 N.ar    1  UNL1       -0.2121
     29 C         141.1447  140.9661  167.7473 C.ar    1  UNL1        0.2048
     30 O         142.0367  140.5639  166.6105 O.2     1  UNL1       -0.4380
     31 C         141.7734  141.4937  165.4634 C.ar    1  UNL1        0.1701
     32 C         142.3579  141.5772  164.0844 C.ar    1  UNL1        0.0664
     33 BR        143.4127  140.6003  163.6565 Br      1  UNL1       -0.0461
     34 C         141.8876  142.6375  163.1333 C.ar    1  UNL1       -0.0154
     35 C         142.5967  142.5447  161.8148 C.3     1  UNL1        0.0439
     36 C         142.4262  143.4059  160.5985 C.3     1  UNL1        0.0768
     37 C         141.0787  140.3058  169.0925 C.3     1  UNL1        0.0688
     38 C         139.8158  141.0550  169.3984 C.3     1  UNL1        0.0092
     39 C         142.3416  139.5565  168.7868 C.3     1  UNL1        0.0092
     40 C         141.0127  139.6455  170.4378 C.3     1  UNL1        0.0092
@<TRIPOS>BOND
     1    10    11    1
     2    11    12   ar
     3    12    13   ar
     4    13    14   ar
     5    14    15   ar
     6    15     4    1
     7     4     5   ar
     8     5     6   ar
     9     6     7   ar
    10     7     3    1
    11     3     2    1
    12     2     1    1
    13     1    21    1
    14    21    22    1
    15    22    23    1
    16    23    24    1
    17    24    25    1
    18    25    26   ar
    19    26    27   ar
    20    27    28   ar
    21    28    29   ar
    22    29    37    1
    23    37    38    1
    24    37    39    1
    25    37    40    1
    26    29    30   ar
    27    30    31   ar
    28    31    32   ar
    29    32    33    1
    30    32    34   ar
    31    34    35    1
    32    35    36    1
    33     7     8   ar
    34     8     9    1
    35    15    16   ar
    36    16    17   ar
    37    17    18   ar
    38    18    19   ar
    39    19    20   ar
    40    20    11   ar
    41    19    14   ar
    42     8     4   ar
    43    36    22    1
    44    34    25   ar
    45    31    27   ar
@<TRIPOS>MOLECULE
*****
 40 45 0 0 0
SMALL
GASTEIGER

@<TRIPOS>ATOM
      1 C         143.0827  142.3823  157.6749 C.3     1  UNL1        0.0294
      2 C         143.2605  141.2796  156.6736 C.3     1  UNL1        0.0666
      3 S         142.4205  140.0403  156.7658 S.3     1  UNL1       -0.0756
      4 C         141.5175  138.5083  160.2159 C.ar    1  UNL1        0.1669
      5 N         142.8074  137.8042  159.9148 N.ar    1  UNL1       -0.1282
      6 N         143.3026  138.2924  158.5857 N.ar    1  UNL1       -0.1221
      7 C         142.3188  139.2982  158.0655 C.ar    1  UNL1        0.1932
      8 N         141.2157  139.4316  159.0729 N.ar    1  UNL1       -0.2884
      9 C         140.0204  140.3306  158.9578 C.3     1  UNL1        0.1340
     10 C         143.1845  138.7089  166.8816 C.3     1  UNL1        0.0521
     11 C         142.5577  138.6121  165.5223 C.ar    1  UNL1        0.0593
     12 C         143.3980  138.7986  164.2938 C.ar    1  UNL1        0.0147
     13 C         142.7712  138.7019  162.9346 C.ar    1  UNL1        0.0028
     14 C         141.3040  138.4186  162.8036 C.ar    1  UNL1        0.0206
     15 C         140.6772  138.3218  161.4443 C.ar    1  UNL1        0.0374
     16 C         139.2100  138.0386  161.3135 C.ar    1  UNL1        0.0031
     17 C         138.3696  137.8520  162.5419 C.ar    1  UNL1        0.0016
     18 C         138.9964  137.9488  163.9011 C.ar    1  UNL1        0.0191
     19 C         140.4636  138.2321  164.0320 C.ar    1  UNL1        0.0810
     20 N         141.0904  138.3288  165.3914 N.ar    1  UNL1       -0.2497
     21 C         144.1215  142.6094  158.7329 C.3     1  UNL1        0.0730
     22 N         143.7462  142.5257  160.1828 N.3     1  UNL1       -0.2720
     23 C         144.8782  142.6657  161.1571 C.3     1  UNL1        0.0768
     24 C         144.8321  142.6277  162.6560 C.3     1  UNL1        0.0434
     25 C         143.6428  142.4403  163.5505 C.ar    1  UNL1       -0.0225
     26 C         144.0364  142.4657  164.9978 C.ar    1  UNL1        0.0178
     27 C         142.9929  142.2955  166.0619 C.ar    1  UNL1        0.1187
     28 N         143.0801  142.2764  167.5592 N.ar    1  UNL1       -0.2121
     29 C         141.6969  142.0690  168.1014 C.ar    1  UNL1        0.2048
     30 O         140.7550  141.9599  166.9392 O.2     1  UNL1       -0.4380
     31 C         141.5559  142.0999  165.6788 C.ar    1  UNL1        0.1701
     32 C         141.1624  142.0745  164.2315 C.ar    1  UNL1        0.0664
     33 BR        139.7254  141.8789  163.8483 Br      1  UNL1       -0.0461
     34 C         142.2058  142.2447  163.1674 C.ar    1  UNL1       -0.0154
     35 C         141.6032  142.1882  161.7949 C.3     1  UNL1        0.0439
     36 C         142.2889  142.3132  160.4667 C.3     1  UNL1        0.0768
     37 C         141.3218  141.9853  169.5514 C.3     1  UNL1        0.0688
     38 C         142.4039  142.9680  169.8881 C.3     1  UNL1        0.0092
     39 C         140.2397  141.0027  169.2148 C.3     1  UNL1        0.0092
     40 C         140.9467  141.9018  171.0013 C.3     1  UNL1        0.0092
@<TRIPOS>BOND
     1    10    11    1
     2    11    12   ar
     3    12    13   ar
     4    13    14   ar
     5    14    15   ar
     6    15     4    1
     7     4     5   ar
     8     5     6   ar
     9     6     7   ar
    10     7     3    1
    11     3     2    1
    12     2     1    1
    13     1    21    1
    14    21    22    1
    15    22    23    1
    16    23    24    1
    17    24    25    1
    18    25    26   ar
    19    26    27   ar
    20    27    28   ar
    21    28    29   ar
    22    29    37    1
    23    37    38    1
    24    37    39    1
    25    37    40    1
    26    29    30   ar
    27    30    31   ar
    28    31    32   ar
    29    32    33    1
    30    32    34   ar
    31    34    35    1
    32    35    36    1
    33     7     8   ar
    34     8     9    1
    35    15    16   ar
    36    16    17   ar
    37    17    18   ar
    38    18    19   ar
    39    19    20   ar
    40    20    11   ar
    41    19    14   ar
    42     8     4   ar
    43    36    22    1
    44    34    25   ar
    45    31    27   ar
@<TRIPOS>MOLECULE
*****
 40 45 0 0 0
SMALL
GASTEIGER

@<TRIPOS>ATOM
      1 C         142.7352  139.8493  169.1105 C.3     1  UNL1        0.0294
      2 C         141.5520  139.5770  169.9915 C.3     1  UNL1        0.0666
      3 S         140.2703  140.3266  169.7789 S.3     1  UNL1       -0.0756
      4 C         139.4745  141.7995  166.2770 C.ar    1  UNL1        0.1669
      5 N         140.0772  142.9901  166.9622 N.ar    1  UNL1       -0.1282
      6 N         140.4486  142.5833  168.3573 N.ar    1  UNL1       -0.1221
      7 C         140.0755  141.1412  168.5345 C.ar    1  UNL1        0.1932
      8 N         139.4735  140.6569  167.2488 N.ar    1  UNL1       -0.2884
      9 C         138.9606  139.2728  166.9818 C.3     1  UNL1        0.1340
     10 C         139.5552  146.5618  161.3208 C.3     1  UNL1        0.0521
     11 C         139.4071  145.3611  162.2076 C.ar    1  UNL1        0.0593
     12 C         139.9189  145.4018  163.6170 C.ar    1  UNL1        0.0147
     13 C         139.7708  144.2010  164.5036 C.ar    1  UNL1        0.0028
     14 C         139.1109  142.9595  163.9810 C.ar    1  UNL1        0.0206
     15 C         138.9628  141.7587  164.8677 C.ar    1  UNL1        0.0374
     16 C         138.3029  140.5173  164.3449 C.ar    1  UNL1        0.0031
     17 C         137.7911  140.4765  162.9355 C.ar    1  UNL1        0.0016
     18 C         137.9393  141.6772  162.0489 C.ar    1  UNL1        0.0191
     19 C         138.5991  142.9188  162.5715 C.ar    1  UNL1        0.0810
     20 N         138.7472  144.1195  161.6848 N.ar    1  UNL1       -0.2497
     21 C         142.8957  139.1040  167.8187 C.3     1  UNL1        0.0730
     22 N         142.7631  139.8297  166.5127 N.3     1  UNL1       -0.2720
     23 C         142.1518  139.0438  165.3907 C.3     1  UNL1        0.0768
     24 C         141.8857  139.4794  163.9801 C.3     1  UNL1        0.0434
     25 C         142.1653  140.8083  163.3433 C.ar    1  UNL1       -0.0225
     26 C         141.7432  140.8259  161.9040 C.ar    1  UNL1        0.0178
     27 C         141.9357  142.0652  161.0810 C.ar    1  UNL1        0.1187
     28 N         141.6197  142.3778  159.6484 N.ar    1  UNL1       -0.2121
     29 C         142.0390  143.7926  159.3793 C.ar    1  UNL1        0.2048
     30 O         142.6142  144.3544  160.6456 O.2     1  UNL1       -0.4380
     31 C         142.5503  143.2868  161.6973 C.ar    1  UNL1        0.1701
     32 C         142.9725  143.2692  163.1366 C.ar    1  UNL1        0.0664
     33 BR        143.5871  144.4908  163.7529 Br      1  UNL1       -0.0461
     34 C         142.7800  142.0300  163.9596 C.ar    1  UNL1       -0.0154
     35 C         143.2668  142.2244  165.3650 C.3     1  UNL1        0.0439
     36 C         143.2593  141.2451  166.5012 C.3     1  UNL1        0.0768
     37 C         141.9064  144.5182  158.0732 C.3     1  UNL1        0.0688
     38 C         140.8511  145.4010  158.6707 C.3     1  UNL1        0.0092
     39 C         142.9616  143.6354  157.4756 C.3     1  UNL1        0.0092
     40 C         141.7737  145.2438  156.7671 C.3     1  UNL1        0.0092
@<TRIPOS>BOND
     1    10    11    1
     2    11    12   ar
     3    12    13   ar
     4    13    14   ar
     5    14    15   ar
     6    15     4    1
     7     4     5   ar
     8     5     6   ar
     9     6     7   ar
    10     7     3    1
    11     3     2    1
    12     2     1    1
    13     1    21    1
    14    21    22    1
    15    22    23    1
    16    23    24    1
    17    24    25    1
    18    25    26   ar
    19    26    27   ar
    20    27    28   ar
    21    28    29   ar
    22    29    37    1
    23    37    38    1
    24    37    39    1
    25    37    40    1
    26    29    30   ar
    27    30    31   ar
    28    31    32   ar
    29    32    33    1
    30    32    34   ar
    31    34    35    1
    32    35    36    1
    33     7     8   ar
    34     8     9    1
    35    15    16   ar
    36    16    17   ar
    37    17    18   ar
    38    18    19   ar
    39    19    20   ar
    40    20    11   ar
    41    19    14   ar
    42     8     4   ar
    43    36    22    1
    44    34    25   ar
    45    31    27   ar
@<TRIPOS>MOLECULE
*****
 40 45 0 0 0
SMALL
GASTEIGER

@<TRIPOS>ATOM
      1 C         142.6015  139.9896  169.3648 C.3     1  UNL1        0.0294
      2 C         141.3886  139.6155  170.1643 C.3     1  UNL1        0.0666
      3 S         140.0543  140.2113  169.8260 S.3     1  UNL1       -0.0756
      4 C         139.2677  141.3312  166.1938 C.ar    1  UNL1        0.1669
      5 N         138.7748  139.9145  166.1735 N.ar    1  UNL1       -0.1282
      6 N         139.0095  139.3227  167.5317 N.ar    1  UNL1       -0.1221
      7 C         139.6474  140.3735  168.3913 C.ar    1  UNL1        0.1932
      8 N         139.8070  141.6147  167.5645 N.ar    1  UNL1       -0.2884
      9 C         140.4015  142.9119  168.0271 C.3     1  UNL1        0.1340
     10 C         137.8135  140.3530  159.5471 C.3     1  UNL1        0.0521
     11 C         138.1672  140.8384  160.9216 C.ar    1  UNL1        0.0593
     12 C         138.2067  139.8747  162.0703 C.ar    1  UNL1        0.0147
     13 C         138.5604  140.3602  163.4448 C.ar    1  UNL1        0.0028
     14 C         138.8746  141.8094  163.6706 C.ar    1  UNL1        0.0206
     15 C         139.2282  142.2949  165.0451 C.ar    1  UNL1        0.0374
     16 C         139.5424  143.7441  165.2708 C.ar    1  UNL1        0.0031
     17 C         139.5029  144.7079  164.1220 C.ar    1  UNL1        0.0016
     18 C         139.1493  144.2224  162.7476 C.ar    1  UNL1        0.0191
     19 C         138.8351  142.7732  162.5218 C.ar    1  UNL1        0.0810
     20 N         138.4814  142.2877  161.1473 N.ar    1  UNL1       -0.2497
     21 C         142.9228  139.2509  168.0995 C.3     1  UNL1        0.0730
     22 N         142.8146  139.9482  166.7758 N.3     1  UNL1       -0.2720
     23 C         142.3376  139.1029  165.6321 C.3     1  UNL1        0.0768
     24 C         142.1259  139.4992  164.2009 C.3     1  UNL1        0.0434
     25 C         142.3388  140.8384  163.5601 C.ar    1  UNL1       -0.0225
     26 C         142.0064  140.8053  162.0977 C.ar    1  UNL1        0.0178
     27 C         142.1513  142.0460  161.2673 C.ar    1  UNL1        0.1187
     28 N         141.9009  142.3155  159.8132 N.ar    1  UNL1       -0.2121
     29 C         142.2234  143.7559  159.5464 C.ar    1  UNL1        0.2048
     30 O         142.6731  144.3767  160.8356 O.2     1  UNL1       -0.4380
     31 C         142.6286  143.3200  161.8992 C.ar    1  UNL1        0.1701
     32 C         142.9610  143.3531  163.3616 C.ar    1  UNL1        0.0664
     33 BR        143.4383  144.6270  163.9935 Br      1  UNL1       -0.0461
     34 C         142.8161  142.1124  164.1920 C.ar    1  UNL1       -0.0154
     35 C         143.1983  142.3616  165.6209 C.3     1  UNL1        0.0439
     36 C         143.1976  141.3983  166.7708 C.3     1  UNL1        0.0768
     37 C         142.1151  144.4531  158.2226 C.3     1  UNL1        0.0688
     38 C         143.1137  143.4984  157.6382 C.3     1  UNL1        0.0092
     39 C         141.1166  145.4077  158.8070 C.3     1  UNL1        0.0092
     40 C         142.0069  145.1502  156.8989 C.3     1  UNL1        0.0092
@<TRIPOS>BOND
     1    10    11    1
     2    11    12   ar
     3    12    13   ar
     4    13    14   ar
     5    14    15   ar
     6    15     4    1
     7     4     5   ar
     8     5     6   ar
     9     6     7   ar
    10     7     3    1
    11     3     2    1
    12     2     1    1
    13     1    21    1
    14    21    22    1
    15    22    23    1
    16    23    24    1
    17    24    25    1
    18    25    26   ar
    19    26    27   ar
    20    27    28   ar
    21    28    29   ar
    22    29    37    1
    23    37    38    1
    24    37    39    1
    25    37    40    1
    26    29    30   ar
    27    30    31   ar
    28    31    32   ar
    29    32    33    1
    30    32    34   ar
    31    34    35    1
    32    35    36    1
    33     7     8   ar
    34     8     9    1
    35    15    16   ar
    36    16    17   ar
    37    17    18   ar
    38    18    19   ar
    39    19    20   ar
    40    20    11   ar
    41    19    14   ar
    42     8     4   ar
    43    36    22    1
    44    34    25   ar
    45    31    27   ar
@<TRIPOS>MOLECULE
*****
 40 45 0 0 0
SMALL
GASTEIGER

@<TRIPOS>ATOM
      1 C         142.2154  143.4706  157.1562 C.3     1  UNL1        0.0294
      2 C         140.8766  143.5435  156.4834 C.3     1  UNL1        0.0666
      3 S         139.6673  143.9664  157.2636 S.3     1  UNL1       -0.0756
      4 C         139.2600  142.9885  160.9976 C.ar    1  UNL1        0.1669
      5 N         138.6337  141.8066  160.3185 N.ar    1  UNL1       -0.1282
      6 N         138.7101  142.0292  158.8371 N.ar    1  UNL1       -0.1221
      7 C         139.3836  143.3485  158.6006 C.ar    1  UNL1        0.1932
      8 N         139.7234  143.9413  159.9359 N.ar    1  UNL1       -0.2884
      9 C         140.4067  145.2563  160.1686 C.3     1  UNL1        0.1340
     10 C         138.2399  138.6404  166.2229 C.3     1  UNL1        0.0521
     11 C         138.5295  139.7761  165.2868 C.ar    1  UNL1        0.0593
     12 C         138.3910  139.5814  163.8059 C.ar    1  UNL1        0.0147
     13 C         138.6807  140.7171  162.8699 C.ar    1  UNL1        0.0028
     14 C         139.1089  142.0475  163.4146 C.ar    1  UNL1        0.0206
     15 C         139.3985  143.1832  162.4784 C.ar    1  UNL1        0.0374
     16 C         139.8267  144.5135  163.0232 C.ar    1  UNL1        0.0031
     17 C         139.9652  144.7082  164.5041 C.ar    1  UNL1        0.0016
     18 C         139.6756  143.5726  165.4401 C.ar    1  UNL1        0.0191
     19 C         139.2474  142.2422  164.8954 C.ar    1  UNL1        0.0810
     20 N         138.9577  141.1065  165.8316 N.ar    1  UNL1       -0.2497
     21 C         142.6835  142.1784  157.7568 C.3     1  UNL1        0.0730
     22 N         142.6961  142.0048  159.2467 N.3     1  UNL1       -0.2720
     23 C         142.2147  140.6767  159.7512 C.3     1  UNL1        0.0768
     24 C         142.1068  140.1980  161.1688 C.3     1  UNL1        0.0434
     25 C         142.4534  140.9292  162.4317 C.ar    1  UNL1       -0.0225
     26 C         142.1941  140.0836  163.6433 C.ar    1  UNL1        0.0178
     27 C         142.4751  140.6285  165.0123 C.ar    1  UNL1        0.1187
     28 N         142.3201  140.0338  166.3805 N.ar    1  UNL1       -0.2121
     29 C         142.7645  141.0566  167.3837 C.ar    1  UNL1        0.2048
     30 O         143.1942  142.2835  166.6353 O.2     1  UNL1       -0.4380
     31 C         143.0154  142.0189  165.1698 C.ar    1  UNL1        0.1701
     32 C         143.2746  142.8645  163.9582 C.ar    1  UNL1        0.0664
     33 BR        143.8149  144.2549  164.1157 Br      1  UNL1       -0.0461
     34 C         142.9937  142.3197  162.5892 C.ar    1  UNL1       -0.0154
     35 C         143.3207  143.3223  161.5226 C.3     1  UNL1        0.0439
     36 C         143.1882  143.1821  160.0350 C.3     1  UNL1        0.0768
     37 C         142.7770  140.8829  168.8735 C.3     1  UNL1        0.0688
     38 C         143.0481  142.3486  169.0421 C.3     1  UNL1        0.0092
     39 C         142.5060  139.4174  168.7050 C.3     1  UNL1        0.0092
     40 C         142.7896  140.7093  170.3633 C.3     1  UNL1        0.0092
@<TRIPOS>BOND
     1    10    11    1
     2    11    12   ar
     3    12    13   ar
     4    13    14   ar
     5    14    15   ar
     6    15     4    1
     7     4     5   ar
     8     5     6   ar
     9     6     7   ar
    10     7     3    1
    11     3     2    1
    12     2     1    1
    13     1    21    1
    14    21    22    1
    15    22    23    1
    16    23    24    1
    17    24    25    1
    18    25    26   ar
    19    26    27   ar
    20    27    28   ar
    21    28    29   ar
    22    29    37    1
    23    37    38    1
    24    37    39    1
    25    37    40    1
    26    29    30   ar
    27    30    31   ar
    28    31    32   ar
    29    32    33    1
    30    32    34   ar
    31    34    35    1
    32    35    36    1
    33     7     8   ar
    34     8     9    1
    35    15    16   ar
    36    16    17   ar
    37    17    18   ar
    38    18    19   ar
    39    19    20   ar
    40    20    11   ar
    41    19    14   ar
    42     8     4   ar
    43    36    22    1
    44    34    25   ar
    45    31    27   ar
@<TRIPOS>MOLECULE
*****
 40 45 0 0 0
SMALL
GASTEIGER

@<TRIPOS>ATOM
      1 C         144.0910  140.4400  157.7283 C.3     1  UNL1        0.0294
      2 C         143.0718  140.4089  156.6281 C.3     1  UNL1        0.0666
      3 S         141.7522  139.7302  156.8472 S.3     1  UNL1       -0.0756
      4 C         140.0491  140.2642  160.2939 C.ar    1  UNL1        0.1669
      5 N         140.4774  138.8306  160.4013 N.ar    1  UNL1       -0.1282
      6 N         141.1675  138.4561  159.1232 N.ar    1  UNL1       -0.1221
      7 C         141.1657  139.6582  158.2260 C.ar    1  UNL1        0.1932
      8 N         140.4746  140.7756  158.9495 N.ar    1  UNL1       -0.2884
      9 C         140.2485  142.1613  158.4214 C.3     1  UNL1        0.1340
     10 C         138.0214  138.5033  166.6215 C.3     1  UNL1        0.0521
     11 C         138.3468  139.1396  165.3027 C.ar    1  UNL1        0.0593
     12 C         139.0730  138.3552  164.2503 C.ar    1  UNL1        0.0147
     13 C         139.3983  138.9916  162.9316 C.ar    1  UNL1        0.0028
     14 C         138.9975  140.4123  162.6651 C.ar    1  UNL1        0.0206
     15 C         139.3229  141.0486  161.3462 C.ar    1  UNL1        0.0374
     16 C         138.9221  142.4692  161.0798 C.ar    1  UNL1        0.0031
     17 C         138.1959  143.2536  162.1322 C.ar    1  UNL1        0.0016
     18 C         137.8705  142.6173  163.4509 C.ar    1  UNL1        0.0191
     19 C         138.2713  141.1967  163.7174 C.ar    1  UNL1        0.0810
     20 N         137.9459  140.5604  165.0362 N.ar    1  UNL1       -0.2497
     21 C         144.2406  141.6673  158.5776 C.3     1  UNL1        0.0730
     22 N         143.6914  141.6851  159.9733 N.3     1  UNL1       -0.2720
     23 C         143.0771  142.9805  160.4144 C.3     1  UNL1        0.0768
     24 C         142.4488  143.3159  161.7347 C.3     1  UNL1        0.0434
     25 C         142.2797  142.4389  162.9396 C.ar    1  UNL1       -0.0225
     26 C         141.5953  143.1689  164.0571 C.ar    1  UNL1        0.0178
     27 C         141.3284  142.4698  165.3571 C.ar    1  UNL1        0.1187
     28 N         140.6771  142.9284  166.6281 N.ar    1  UNL1       -0.2121
     29 C         140.6920  141.7827  167.5961 C.ar    1  UNL1        0.2048
     30 O         141.3524  140.6160  166.9234 O.2     1  UNL1       -0.4380
     31 C         141.7458  141.0406  165.5397 C.ar    1  UNL1        0.1701
     32 C         142.4301  140.3106  164.4221 C.ar    1  UNL1        0.0664
     33 BR        142.8474  138.8815  164.6046 Br      1  UNL1       -0.0461
     34 C         142.6970  141.0097  163.1221 C.ar    1  UNL1       -0.0154
     35 C         143.3866  140.1047  162.1447 C.3     1  UNL1        0.0439
     36 C         143.8292  140.4053  160.7433 C.3     1  UNL1        0.0768
     37 C         140.1428  141.8006  168.9919 C.3     1  UNL1        0.0688
     38 C         140.3230  143.2888  169.0437 C.3     1  UNL1        0.0092
     39 C         139.9625  140.3124  168.9401 C.3     1  UNL1        0.0092
     40 C         139.5936  141.8186  170.3876 C.3     1  UNL1        0.0092
@<TRIPOS>BOND
     1    10    11    1
     2    11    12   ar
     3    12    13   ar
     4    13    14   ar
     5    14    15   ar
     6    15     4    1
     7     4     5   ar
     8     5     6   ar
     9     6     7   ar
    10     7     3    1
    11     3     2    1
    12     2     1    1
    13     1    21    1
    14    21    22    1
    15    22    23    1
    16    23    24    1
    17    24    25    1
    18    25    26   ar
    19    26    27   ar
    20    27    28   ar
    21    28    29   ar
    22    29    37    1
    23    37    38    1
    24    37    39    1
    25    37    40    1
    26    29    30   ar
    27    30    31   ar
    28    31    32   ar
    29    32    33    1
    30    32    34   ar
    31    34    35    1
    32    35    36    1
    33     7     8   ar
    34     8     9    1
    35    15    16   ar
    36    16    17   ar
    37    17    18   ar
    38    18    19   ar
    39    19    20   ar
    40    20    11   ar
    41    19    14   ar
    42     8     4   ar
    43    36    22    1
    44    34    25   ar
    45    31    27   ar
@<TRIPOS>MOLECULE
*****
 40 45 0 0 0
SMALL
GASTEIGER

@<TRIPOS>ATOM
      1 C         142.9943  138.4881  157.4193 C.3     1  UNL1        0.0294
      2 C         142.2873  139.2169  156.3152 C.3     1  UNL1        0.0666
      3 S         142.0912  140.7015  156.4018 S.3     1  UNL1       -0.0756
      4 C         141.8069  142.4092  159.8758 C.ar    1  UNL1        0.1669
      5 N         140.3611  142.1892  159.5417 N.ar    1  UNL1       -0.1282
      6 N         140.2917  141.5227  158.1997 N.ar    1  UNL1       -0.1221
      7 C         141.6945  141.3308  157.7043 C.ar    1  UNL1        0.1932
      8 N         142.6308  141.8786  158.7402 N.ar    1  UNL1       -0.2884
      9 C         144.1284  141.8934  158.6554 C.3     1  UNL1        0.1340
     10 C         138.5425  144.8319  165.4188 C.3     1  UNL1        0.0521
     11 C         139.4908  144.3858  164.3455 C.ar    1  UNL1        0.0593
     12 C         138.9620  143.7474  163.0954 C.ar    1  UNL1        0.0147
     13 C         139.9103  143.3013  162.0222 C.ar    1  UNL1        0.0028
     14 C         141.3874  143.4936  162.1991 C.ar    1  UNL1        0.0206
     15 C         142.3356  143.0475  161.1258 C.ar    1  UNL1        0.0374
     16 C         143.8126  143.2399  161.3028 C.ar    1  UNL1        0.0031
     17 C         144.3414  143.8783  162.5529 C.ar    1  UNL1        0.0016
     18 C         143.3932  144.3243  163.6261 C.ar    1  UNL1        0.0191
     19 C         141.9162  144.1320  163.4492 C.ar    1  UNL1        0.0810
     20 N         140.9679  144.5781  164.5225 N.ar    1  UNL1       -0.2497
     21 C         142.2039  137.8475  158.5215 C.3     1  UNL1        0.0730
     22 N         142.1613  138.4815  159.8802 N.3     1  UNL1       -0.2720
     23 C         140.7927  138.6948  160.4561 C.3     1  UNL1        0.0768
     24 C         140.4176  139.2977  161.7775 C.3     1  UNL1        0.0434
     25 C         141.3184  139.8361  162.8491 C.ar    1  UNL1       -0.0225
     26 C         140.5322  140.3510  164.0183 C.ar    1  UNL1        0.0178
     27 C         141.2444  140.9344  165.2026 C.ar    1  UNL1        0.1187
     28 N         140.7408  141.5162  166.4901 N.ar    1  UNL1       -0.2121
     29 C         141.9279  141.9444  167.3010 C.ar    1  UNL1        0.2048
     30 O         143.1652  141.6272  166.5145 O.2     1  UNL1       -0.4380
     31 C         142.7428  141.0030  165.2177 C.ar    1  UNL1        0.1701
     32 C         143.5290  140.4882  164.0485 C.ar    1  UNL1        0.0664
     33 BR        145.0273  140.5568  164.0636 Br      1  UNL1       -0.0461
     34 C         142.8168  139.9048  162.8643 C.ar    1  UNL1       -0.0154
     35 C         143.7844  139.4518  161.8114 C.3     1  UNL1        0.0439
     36 C         143.4926  138.8184  160.4833 C.3     1  UNL1        0.0768
     37 C         141.8851  142.5784  168.6597 C.3     1  UNL1        0.0688
     38 C         143.3029  142.1531  168.9028 C.3     1  UNL1        0.0092
     39 C         140.4674  143.0037  168.4167 C.3     1  UNL1        0.0092
     40 C         141.8424  143.2124  170.0184 C.3     1  UNL1        0.0092
@<TRIPOS>BOND
     1    10    11    1
     2    11    12   ar
     3    12    13   ar
     4    13    14   ar
     5    14    15   ar
     6    15     4    1
     7     4     5   ar
     8     5     6   ar
     9     6     7   ar
    10     7     3    1
    11     3     2    1
    12     2     1    1
    13     1    21    1
    14    21    22    1
    15    22    23    1
    16    23    24    1
    17    24    25    1
    18    25    26   ar
    19    26    27   ar
    20    27    28   ar
    21    28    29   ar
    22    29    37    1
    23    37    38    1
    24    37    39    1
    25    37    40    1
    26    29    30   ar
    27    30    31   ar
    28    31    32   ar
    29    32    33    1
    30    32    34   ar
    31    34    35    1
    32    35    36    1
    33     7     8   ar
    34     8     9    1
    35    15    16   ar
    36    16    17   ar
    37    17    18   ar
    38    18    19   ar
    39    19    20   ar
    40    20    11   ar
    41    19    14   ar
    42     8     4   ar
    43    36    22    1
    44    34    25   ar
    45    31    27   ar
