@<TRIPOS>MOLECULE
*****
 30 33 0 0 0
SMALL
GASTEIGER

@<TRIPOS>ATOM
      1 N         143.8419  142.4089  163.0312 N.ar    1  UNL1       -0.2558
      2 C         145.3037  142.4411  162.6967 C.ar    1  UNL1        0.1852
      3 N         145.9388  141.2115  163.2752 N.ar    1  UNL1       -0.2204
      4 C         144.8694  140.4193  163.9672 C.ar    1  UNL1        0.1366
      5 C         144.9083  139.1197  164.7152 C.ar    1  UNL1        0.1240
      6 N         143.6512  138.5602  165.3123 N.ar    1  UNL1       -0.2106
      7 C         142.3552  139.3002  165.1614 C.ar    1  UNL1        0.2186
      8 N         142.3163  140.5998  164.4135 N.ar    1  UNL1       -0.1944
      9 C         143.5734  141.1593  163.8164 C.ar    1  UNL1        0.1722
     10 C         140.8451  144.8459  162.6493 C.ar    1  UNL1        0.2216
     11 C         141.5516  143.7424  163.3795 C.ar    1  UNL1        0.0962
     12 C         142.8266  143.4444  162.6477 C.ar    1  UNL1        0.1740
     13 N         142.9081  144.3637  161.4653 N.ar    1  UNL1       -0.1520
     14 N         141.6835  145.2299  161.4662 N.ar    1  UNL1       -0.2444
     15 H         141.4679  145.9279  160.8062 H       1  UNL1        0.1921
     16 O         139.5309  145.4580  163.0345 O.3     1  UNL1       -0.4643
     17 C         138.5146  144.9348  165.3677 C.3     1  UNL1        0.0473
     18 C         138.5672  144.6890  163.8889 C.3     1  UNL1        0.1678
     19 C         137.6559  143.6742  163.2644 C.3     1  UNL1        0.0473
     20 N         141.0981  138.7406  165.7586 N.pl3   1  UNL1       -0.2981
     21 H         141.0307  137.7774  165.9506 H       1  UNL1        0.1500
     22 C         139.9436  139.6486  166.0632 C.3     1  UNL1        0.1306
     23 C         138.8067  139.7679  165.0919 C.3     1  UNL1        0.0295
     24 C         139.9260  140.4373  167.3390 C.ar    1  UNL1        0.1570
     25 N         140.5361  141.8069  167.3825 N.ar    1  UNL1       -0.2251
     26 C         140.5184  142.5956  168.6583 C.ar    1  UNL1        0.1314
     27 C         139.8908  142.0147  169.8905 C.ar    1  UNL1        0.1783
     28 F         139.8732  142.8033  171.1663 F       1  UNL1       -0.2009
     29 C         139.2807  140.6450  169.8471 C.ar    1  UNL1        0.1314
     30 N         139.2983  139.8563  168.5713 N.ar    1  UNL1       -0.2251
@<TRIPOS>BOND
     1    17    18    1
     2    18    19    1
     3    18    16    1
     4    16    10    1
     5    10    11   ar
     6    11    12   ar
     7    12     1    1
     8     1     2   ar
     9     2     3   ar
    10     3     4   ar
    11     4     5   ar
    12     5     6   ar
    13     6     7   ar
    14     7    20    1
    15    20    22    1
    16    22    23    1
    17    22    24    1
    18    24    25   ar
    19    25    26   ar
    20    26    27   ar
    21    27    28    1
    22    27    29   ar
    23    29    30   ar
    24     7     8   ar
    25     8     9   ar
    26    12    13   ar
    27    13    14   ar
    28    14    10   ar
    29     9     1   ar
    30     9     4   ar
    31    30    24   ar
    32    20    21    1
    33    14    15    1
@<TRIPOS>MOLECULE
*****
 30 33 0 0 0
SMALL
GASTEIGER

@<TRIPOS>ATOM
      1 N         138.5153  139.2299  163.9993 N.ar    1  UNL1       -0.2558
      2 C         138.4935  137.9745  163.1788 C.ar    1  UNL1        0.1852
      3 N         138.3984  138.3666  161.7341 N.ar    1  UNL1       -0.2204
      4 C         138.3615  139.8644  161.6617 C.ar    1  UNL1        0.1366
      5 C         138.2713  140.8113  160.5019 C.ar    1  UNL1        0.1240
      6 N         138.2535  142.2918  160.7422 N.ar    1  UNL1       -0.2106
      7 C         138.3257  142.8254  162.1422 C.ar    1  UNL1        0.2186
      8 N         138.4159  141.8785  163.3020 N.ar    1  UNL1       -0.1944
      9 C         138.4337  140.3980  163.0618 C.ar    1  UNL1        0.1722
     10 C         139.3313  139.8750  167.7387 C.ar    1  UNL1        0.2216
     11 C         139.6138  140.0862  166.2808 C.ar    1  UNL1        0.0962
     12 C         138.6033  139.3043  165.4949 C.ar    1  UNL1        0.1740
     13 N         137.6964  138.6100  166.4671 N.ar    1  UNL1       -0.1520
     14 N         138.1462  138.9627  167.8539 N.ar    1  UNL1       -0.2444
     15 H         137.7357  138.6502  168.6925 H       1  UNL1        0.1921
     16 O         140.0991  140.4716  168.8811 O.3     1  UNL1       -0.4643
     17 C         142.1621  142.0426  168.7203 C.3     1  UNL1        0.0473
     18 C         141.5831  140.6598  168.7702 C.3     1  UNL1        0.1678
     19 C         142.4882  139.4650  168.7091 C.3     1  UNL1        0.0473
     20 N         138.3079  144.3060  162.3824 N.pl3   1  UNL1       -0.2981
     21 H         137.4680  144.7537  162.6343 H       1  UNL1        0.1500
     22 C         139.5696  145.1044  162.2388 C.3     1  UNL1        0.1306
     23 C         139.5382  146.4407  161.5581 C.3     1  UNL1        0.0295
     24 C         140.8627  144.5665  162.7760 C.ar    1  UNL1        0.1570
     25 N         140.9538  144.1213  164.2054 N.ar    1  UNL1       -0.2251
     26 C         142.2469  143.5835  164.7426 C.ar    1  UNL1        0.1314
     27 C         143.4490  143.4907  163.8502 C.ar    1  UNL1        0.1783
     28 F         144.7421  142.9529  164.3873 F       1  UNL1       -0.2009
     29 C         143.3579  143.9359  162.4206 C.ar    1  UNL1        0.1314
     30 N         142.0648  144.4738  161.8835 N.ar    1  UNL1       -0.2251
@<TRIPOS>BOND
     1    17    18    1
     2    18    19    1
     3    18    16    1
     4    16    10    1
     5    10    11   ar
     6    11    12   ar
     7    12     1    1
     8     1     2   ar
     9     2     3   ar
    10     3     4   ar
    11     4     5   ar
    12     5     6   ar
    13     6     7   ar
    14     7    20    1
    15    20    22    1
    16    22    23    1
    17    22    24    1
    18    24    25   ar
    19    25    26   ar
    20    26    27   ar
    21    27    28    1
    22    27    29   ar
    23    29    30   ar
    24     7     8   ar
    25     8     9   ar
    26    12    13   ar
    27    13    14   ar
    28    14    10   ar
    29     9     1   ar
    30     9     4   ar
    31    30    24   ar
    32    20    21    1
    33    14    15    1
@<TRIPOS>MOLECULE
*****
 30 33 0 0 0
SMALL
GASTEIGER

@<TRIPOS>ATOM
      1 N         141.7256  138.8355  160.1435 N.ar    1  UNL1       -0.2558
      2 C         142.4438  137.9026  159.2141 C.ar    1  UNL1        0.1852
      3 N         143.4806  138.6939  158.4731 N.ar    1  UNL1       -0.2204
      4 C         143.4031  140.1158  158.9445 C.ar    1  UNL1        0.1366
      5 C         144.1800  141.3421  158.5672 C.ar    1  UNL1        0.1240
      6 N         143.8723  142.6559  159.2222 N.ar    1  UNL1       -0.2106
      7 C         142.7876  142.7434  160.2546 C.ar    1  UNL1        0.2186
      8 N         142.0107  141.5171  160.6319 N.ar    1  UNL1       -0.1944
      9 C         142.3184  140.2033  159.9769 C.ar    1  UNL1        0.1722
     10 C         139.3557  137.9795  163.0958 C.ar    1  UNL1        0.2216
     11 C         140.7017  138.3828  162.5708 C.ar    1  UNL1        0.0962
     12 C         140.6103  138.4656  161.0758 C.ar    1  UNL1        0.1740
     13 N         139.2078  138.1136  160.6770 N.ar    1  UNL1       -0.1520
     14 N         138.4323  137.8131  161.9254 N.ar    1  UNL1       -0.2444
     15 H         137.4840  137.5525  161.9689 H       1  UNL1        0.1921
     16 O         138.9961  137.7781  164.5381 O.3     1  UNL1       -0.4643
     17 C         137.8984  138.6654  166.7194 C.3     1  UNL1        0.0473
     18 C         138.4058  138.9079  165.3288 C.3     1  UNL1        0.1678
     19 C         138.3231  140.2803  164.7289 C.3     1  UNL1        0.0473
     20 N         142.4799  144.0574  160.9096 N.pl3   1  UNL1       -0.2981
     21 H         143.1762  144.5258  161.4244 H       1  UNL1        0.1500
     22 C         141.1114  144.6576  160.7803 C.3     1  UNL1        0.1306
     23 C         140.7328  145.4000  159.5330 C.3     1  UNL1        0.0295
     24 C         140.1214  144.5154  161.8981 C.ar    1  UNL1        0.1570
     25 N         140.4624  145.0162  163.2703 N.ar    1  UNL1       -0.2251
     26 C         139.4724  144.8741  164.3881 C.ar    1  UNL1        0.1314
     27 C         138.1413  144.2311  164.1339 C.ar    1  UNL1        0.1783
     28 F         137.1513  144.0889  165.2518 F       1  UNL1       -0.2009
     29 C         137.8002  143.7303  162.7617 C.ar    1  UNL1        0.1314
     30 N         138.7902  143.8724  161.6438 N.ar    1  UNL1       -0.2251
@<TRIPOS>BOND
     1    17    18    1
     2    18    19    1
     3    18    16    1
     4    16    10    1
     5    10    11   ar
     6    11    12   ar
     7    12     1    1
     8     1     2   ar
     9     2     3   ar
    10     3     4   ar
    11     4     5   ar
    12     5     6   ar
    13     6     7   ar
    14     7    20    1
    15    20    22    1
    16    22    23    1
    17    22    24    1
    18    24    25   ar
    19    25    26   ar
    20    26    27   ar
    21    27    28    1
    22    27    29   ar
    23    29    30   ar
    24     7     8   ar
    25     8     9   ar
    26    12    13   ar
    27    13    14   ar
    28    14    10   ar
    29     9     1   ar
    30     9     4   ar
    31    30    24   ar
    32    20    21    1
    33    14    15    1
@<TRIPOS>MOLECULE
*****
 30 33 0 0 0
SMALL
GASTEIGER

@<TRIPOS>ATOM
      1 N         144.1319  141.1324  164.6828 N.ar    1  UNL1       -0.2558
      2 C         145.3816  140.7444  163.9493 C.ar    1  UNL1        0.1852
      3 N         145.5853  141.7231  162.8310 N.ar    1  UNL1       -0.2204
      4 C         144.4617  142.7159  162.8732 C.ar    1  UNL1        0.1366
      5 C         144.1404  143.9051  162.0175 C.ar    1  UNL1        0.1240
      6 N         142.9209  144.7293  162.3062 N.ar    1  UNL1       -0.2106
      7 C         142.0226  144.3643  163.4507 C.ar    1  UNL1        0.2186
      8 N         142.3439  143.1750  164.3064 N.ar    1  UNL1       -0.1944
      9 C         143.5634  142.3508  164.0177 C.ar    1  UNL1        0.1722
     10 C         142.2861  139.9612  167.8900 C.ar    1  UNL1        0.2216
     11 C         142.6056  141.0176  166.8741 C.ar    1  UNL1        0.0962
     12 C         143.5525  140.4260  165.8724 C.ar    1  UNL1        0.1740
     13 N         143.8183  139.0042  166.2693 N.ar    1  UNL1       -0.1520
     14 N         143.0356  138.7168  167.5163 N.ar    1  UNL1       -0.2444
     15 H         143.0171  137.8616  168.0037 H       1  UNL1        0.1921
     16 O         141.3768  140.1212  169.0723 O.3     1  UNL1       -0.4643
     17 C         138.9828  140.4528  170.0257 C.3     1  UNL1        0.0473
     18 C         139.8890  140.1076  168.8814 C.3     1  UNL1        0.1678
     19 C         139.3075  139.7488  167.5460 C.3     1  UNL1        0.0473
     20 N         140.8030  145.1885  163.7393 N.pl3   1  UNL1       -0.2981
     21 H         140.8450  146.1699  163.6727 H       1  UNL1        0.1500
     22 C         139.5195  144.5176  164.1295 C.3     1  UNL1        0.1306
     23 C         138.7961  144.9470  165.3715 C.3     1  UNL1        0.0295
     24 C         138.9592  143.4172  163.2778 C.ar    1  UNL1        0.1570
     25 N         138.7901  143.6235  161.8018 N.ar    1  UNL1       -0.2251
     26 C         138.2298  142.5231  160.9501 C.ar    1  UNL1        0.1314
     27 C         137.8388  141.2166  161.5744 C.ar    1  UNL1        0.1783
     28 F         137.2785  140.1162  160.7227 F       1  UNL1       -0.2009
     29 C         138.0079  141.0103  163.0506 C.ar    1  UNL1        0.1314
     30 N         138.5682  142.1106  163.9023 N.ar    1  UNL1       -0.2251
@<TRIPOS>BOND
     1    17    18    1
     2    18    19    1
     3    18    16    1
     4    16    10    1
     5    10    11   ar
     6    11    12   ar
     7    12     1    1
     8     1     2   ar
     9     2     3   ar
    10     3     4   ar
    11     4     5   ar
    12     5     6   ar
    13     6     7   ar
    14     7    20    1
    15    20    22    1
    16    22    23    1
    17    22    24    1
    18    24    25   ar
    19    25    26   ar
    20    26    27   ar
    21    27    28    1
    22    27    29   ar
    23    29    30   ar
    24     7     8   ar
    25     8     9   ar
    26    12    13   ar
    27    13    14   ar
    28    14    10   ar
    29     9     1   ar
    30     9     4   ar
    31    30    24   ar
    32    20    21    1
    33    14    15    1
@<TRIPOS>MOLECULE
*****
 30 33 0 0 0
SMALL
GASTEIGER

@<TRIPOS>ATOM
      1 N         143.4328  141.8144  162.4525 N.ar    1  UNL1       -0.2558
      2 C         144.8749  141.6034  162.8075 C.ar    1  UNL1        0.1852
      3 N         145.1845  140.1451  162.6410 N.ar    1  UNL1       -0.2204
      4 C         143.9338  139.4550  162.1833 C.ar    1  UNL1        0.1366
      5 C         143.6410  138.0204  161.8575 C.ar    1  UNL1        0.1240
      6 N         142.2655  137.6175  161.4152 N.ar    1  UNL1       -0.2106
      7 C         141.1829  138.6492  161.2987 C.ar    1  UNL1        0.2186
      8 N         141.4757  140.0837  161.6245 N.ar    1  UNL1       -0.1944
      9 C         142.8512  140.4866  162.0668 C.ar    1  UNL1        0.1722
     10 C         140.9770  144.7976  162.8192 C.ar    1  UNL1        0.2216
     11 C         141.3040  143.3425  162.9797 C.ar    1  UNL1        0.0962
     12 C         142.7008  143.1234  162.4788 C.ar    1  UNL1        0.1740
     13 N         143.2370  144.4430  162.0088 N.ar    1  UNL1       -0.1520
     14 N         142.1717  145.4779  162.2191 N.ar    1  UNL1       -0.2444
     15 H         142.2439  146.4353  162.0016 H       1  UNL1        0.1921
     16 O         139.6825  145.4569  163.1932 O.3     1  UNL1       -0.4643
     17 C         138.5789  144.8526  165.4663 C.3     1  UNL1        0.0473
     18 C         138.6528  144.6974  163.9762 C.3     1  UNL1        0.1678
     19 C         137.6971  143.7827  163.2690 C.3     1  UNL1        0.0473
     20 N         139.8073  138.2462  160.8564 N.pl3   1  UNL1       -0.2981
     21 H         139.6959  137.6026  160.1198 H       1  UNL1        0.1500
     22 C         138.6016  138.8239  161.5363 C.3     1  UNL1        0.1306
     23 C         137.4725  139.3775  160.7184 C.3     1  UNL1        0.0295
     24 C         138.5248  138.8482  163.0341 C.ar    1  UNL1        0.1570
     25 N         138.1721  140.1202  163.7465 N.ar    1  UNL1       -0.2251
     26 C         138.0953  140.1444  165.2444 C.ar    1  UNL1        0.1314
     27 C         138.3712  138.8967  166.0298 C.ar    1  UNL1        0.1783
     28 F         138.2944  138.9209  167.5276 F       1  UNL1       -0.2009
     29 C         138.7240  137.6246  165.3174 C.ar    1  UNL1        0.1314
     30 N         138.8008  137.6003  163.8196 N.ar    1  UNL1       -0.2251
@<TRIPOS>BOND
     1    17    18    1
     2    18    19    1
     3    18    16    1
     4    16    10    1
     5    10    11   ar
     6    11    12   ar
     7    12     1    1
     8     1     2   ar
     9     2     3   ar
    10     3     4   ar
    11     4     5   ar
    12     5     6   ar
    13     6     7   ar
    14     7    20    1
    15    20    22    1
    16    22    23    1
    17    22    24    1
    18    24    25   ar
    19    25    26   ar
    20    26    27   ar
    21    27    28    1
    22    27    29   ar
    23    29    30   ar
    24     7     8   ar
    25     8     9   ar
    26    12    13   ar
    27    13    14   ar
    28    14    10   ar
    29     9     1   ar
    30     9     4   ar
    31    30    24   ar
    32    20    21    1
    33    14    15    1
@<TRIPOS>MOLECULE
*****
 30 33 0 0 0
SMALL
GASTEIGER

@<TRIPOS>ATOM
      1 N         138.8389  138.9587  165.1322 N.ar    1  UNL1       -0.2558
      2 C         138.8827  137.5263  164.6893 C.ar    1  UNL1        0.1852
      3 N         138.5322  137.4809  163.2315 N.ar    1  UNL1       -0.2204
      4 C         138.2717  138.8853  162.7735 C.ar    1  UNL1        0.1366
      5 C         137.8864  139.4505  161.4385 C.ar    1  UNL1        0.1240
      6 N         137.6907  140.9290  161.2783 N.ar    1  UNL1       -0.2106
      7 C         137.8803  141.8423  162.4530 C.ar    1  UNL1        0.2186
      8 N         138.2656  141.2772  163.7879 N.ar    1  UNL1       -0.1944
      9 C         138.4613  139.7987  163.9482 C.ar    1  UNL1        0.1722
     10 C         140.1111  140.6694  168.3757 C.ar    1  UNL1        0.2216
     11 C         140.1817  140.4563  166.8926 C.ar    1  UNL1        0.0962
     12 C         139.1229  139.4627  166.5161 C.ar    1  UNL1        0.1740
     13 N         138.3980  139.0618  167.7665 N.ar    1  UNL1       -0.1520
     14 N         139.0087  139.8075  168.9159 N.ar    1  UNL1       -0.2444
     15 H         138.7341  139.7426  169.8591 H       1  UNL1        0.1921
     16 O         140.9889  141.5838  169.1778 O.3     1  UNL1       -0.4643
     17 C         143.4924  142.0776  169.6667 C.3     1  UNL1        0.0473
     18 C         142.3401  141.1178  169.6330 C.3     1  UNL1        0.1678
     19 C         142.5390  139.6920  170.0543 C.3     1  UNL1        0.0473
     20 N         137.6845  143.3209  162.2926 N.pl3   1  UNL1       -0.2981
     21 H         136.7869  143.6816  162.1102 H       1  UNL1        0.1500
     22 C         138.8565  144.2496  162.4102 C.3     1  UNL1        0.1306
     23 C         139.0295  145.0866  163.6431 C.3     1  UNL1        0.0295
     24 C         139.8555  144.3416  161.2951 C.ar    1  UNL1        0.1570
     25 N         141.0096  143.3850  161.2413 N.ar    1  UNL1       -0.2251
     26 C         142.0086  143.4770  160.1261 C.ar    1  UNL1        0.1314
     27 C         141.8534  144.5255  159.0648 C.ar    1  UNL1        0.1783
     28 F         142.8524  144.6174  157.9496 F       1  UNL1       -0.2009
     29 C         140.6993  145.4821  159.1185 C.ar    1  UNL1        0.1314
     30 N         139.7003  145.3902  160.2337 N.ar    1  UNL1       -0.2251
@<TRIPOS>BOND
     1    17    18    1
     2    18    19    1
     3    18    16    1
     4    16    10    1
     5    10    11   ar
     6    11    12   ar
     7    12     1    1
     8     1     2   ar
     9     2     3   ar
    10     3     4   ar
    11     4     5   ar
    12     5     6   ar
    13     6     7   ar
    14     7    20    1
    15    20    22    1
    16    22    23    1
    17    22    24    1
    18    24    25   ar
    19    25    26   ar
    20    26    27   ar
    21    27    28    1
    22    27    29   ar
    23    29    30   ar
    24     7     8   ar
    25     8     9   ar
    26    12    13   ar
    27    13    14   ar
    28    14    10   ar
    29     9     1   ar
    30     9     4   ar
    31    30    24   ar
    32    20    21    1
    33    14    15    1
@<TRIPOS>MOLECULE
*****
 30 33 0 0 0
SMALL
GASTEIGER

@<TRIPOS>ATOM
      1 N         143.8454  142.5186  162.9160 N.ar    1  UNL1       -0.2558
      2 C         145.2788  142.5775  162.4779 C.ar    1  UNL1        0.1852
      3 N         145.9857  141.3816  163.0436 N.ar    1  UNL1       -0.2204
      4 C         144.9893  140.5836  163.8312 C.ar    1  UNL1        0.1366
      5 C         145.1156  139.3079  164.6100 C.ar    1  UNL1        0.1240
      6 N         143.9191  138.7350  165.3100 N.ar    1  UNL1       -0.2106
      7 C         142.5962  139.4377  165.2311 C.ar    1  UNL1        0.2186
      8 N         142.4699  140.7134  164.4523 N.ar    1  UNL1       -0.1944
      9 C         143.6664  141.2864  163.7523 C.ar    1  UNL1        0.1722
     10 C         140.8153  144.9368  162.7239 C.ar    1  UNL1        0.2216
     11 C         141.6322  143.9158  163.4589 C.ar    1  UNL1        0.0962
     12 C         142.7782  143.5168  162.5772 C.ar    1  UNL1        0.1740
     13 N         142.6696  144.2912  161.2972 N.ar    1  UNL1       -0.1520
     14 N         141.4565  145.1689  161.3878 N.ar    1  UNL1       -0.2444
     15 H         141.1372  145.7884  160.6924 H       1  UNL1        0.1921
     16 O         139.5750  145.6079  163.2351 O.3     1  UNL1       -0.4643
     17 C         138.5764  144.8929  165.5246 C.3     1  UNL1        0.0473
     18 C         138.5700  144.8242  164.0262 C.3     1  UNL1        0.1678
     19 C         137.5585  143.9718  163.3188 C.3     1  UNL1        0.0473
     20 N         141.3997  138.8647  165.9311 N.pl3   1  UNL1       -0.2981
     21 H         141.4938  138.0565  166.4854 H       1  UNL1        0.1500
     22 C         140.0596  139.5229  165.7865 C.3     1  UNL1        0.1306
     23 C         139.4833  140.3091  166.9267 C.3     1  UNL1        0.0295
     24 C         139.2959  139.3952  164.5019 C.ar    1  UNL1        0.1570
     25 N         139.2923  138.0927  163.7578 N.ar    1  UNL1       -0.2251
     26 C         138.5286  137.9650  162.4731 C.ar    1  UNL1        0.1314
     27 C         137.7685  139.1396  161.9325 C.ar    1  UNL1        0.1783
     28 F         137.0047  139.0118  160.6478 F       1  UNL1       -0.2009
     29 C         137.7720  140.4421  162.6765 C.ar    1  UNL1        0.1314
     30 N         138.5357  140.5699  163.9612 N.ar    1  UNL1       -0.2251
@<TRIPOS>BOND
     1    17    18    1
     2    18    19    1
     3    18    16    1
     4    16    10    1
     5    10    11   ar
     6    11    12   ar
     7    12     1    1
     8     1     2   ar
     9     2     3   ar
    10     3     4   ar
    11     4     5   ar
    12     5     6   ar
    13     6     7   ar
    14     7    20    1
    15    20    22    1
    16    22    23    1
    17    22    24    1
    18    24    25   ar
    19    25    26   ar
    20    26    27   ar
    21    27    28    1
    22    27    29   ar
    23    29    30   ar
    24     7     8   ar
    25     8     9   ar
    26    12    13   ar
    27    13    14   ar
    28    14    10   ar
    29     9     1   ar
    30     9     4   ar
    31    30    24   ar
    32    20    21    1
    33    14    15    1
@<TRIPOS>MOLECULE
*****
 30 33 0 0 0
SMALL
GASTEIGER

@<TRIPOS>ATOM
      1 N         140.1010  139.0783  162.5574 N.ar    1  UNL1       -0.2558
      2 C         140.1541  137.7623  163.2752 C.ar    1  UNL1        0.1852
      3 N         141.3545  137.0119  162.7793 N.ar    1  UNL1       -0.2204
      4 C         142.0433  137.8642  161.7549 C.ar    1  UNL1        0.1366
      5 C         143.2758  137.6423  160.9294 C.ar    1  UNL1        0.1240
      6 N         143.7336  138.6975  159.9667 N.ar    1  UNL1       -0.2106
      7 C         142.9589  139.9746  159.8296 C.ar    1  UNL1        0.2186
      8 N         141.7264  140.1965  160.6551 N.ar    1  UNL1       -0.1944
      9 C         141.2686  139.1413  161.6178 C.ar    1  UNL1        0.1722
     10 C         137.9625  142.3060  162.8292 C.ar    1  UNL1        0.2216
     11 C         139.2576  141.6145  162.5217 C.ar    1  UNL1        0.0962
     12 C         139.0627  140.1442  162.7460 C.ar    1  UNL1        0.1740
     13 N         137.6471  139.9271  163.1921 N.ar    1  UNL1       -0.1520
     14 N         136.9671  141.2631  163.2435 N.ar    1  UNL1       -0.2444
     15 H         136.0318  141.4268  163.5035 H       1  UNL1        0.1921
     16 O         137.7076  143.7814  162.7382 O.3     1  UNL1       -0.4643
     17 C         138.9747  144.8182  164.7556 C.3     1  UNL1        0.0473
     18 C         138.7155  144.7515  163.2796 C.3     1  UNL1        0.1678
     19 C         139.4643  145.6549  162.3450 C.3     1  UNL1        0.0473
     20 N         143.4168  141.0299  158.8668 N.pl3   1  UNL1       -0.2981
     21 H         143.0849  141.0281  157.9399 H       1  UNL1        0.1500
     22 C         144.3803  142.0880  159.3162 C.3     1  UNL1        0.1306
     23 C         145.2984  142.7370  158.3232 C.3     1  UNL1        0.0295
     24 C         144.4259  142.4971  160.7587 C.ar    1  UNL1        0.1570
     25 N         145.2383  141.7031  161.7381 N.ar    1  UNL1       -0.2251
     26 C         145.2839  142.1122  163.1806 C.ar    1  UNL1        0.1314
     27 C         144.5170  143.3153  163.6435 C.ar    1  UNL1        0.1783
     28 F         144.5625  143.7244  165.0859 F       1  UNL1       -0.2009
     29 C         143.7045  144.1094  162.6640 C.ar    1  UNL1        0.1314
     30 N         143.6589  143.7003  161.2216 N.ar    1  UNL1       -0.2251
@<TRIPOS>BOND
     1    17    18    1
     2    18    19    1
     3    18    16    1
     4    16    10    1
     5    10    11   ar
     6    11    12   ar
     7    12     1    1
     8     1     2   ar
     9     2     3   ar
    10     3     4   ar
    11     4     5   ar
    12     5     6   ar
    13     6     7   ar
    14     7    20    1
    15    20    22    1
    16    22    23    1
    17    22    24    1
    18    24    25   ar
    19    25    26   ar
    20    26    27   ar
    21    27    28    1
    22    27    29   ar
    23    29    30   ar
    24     7     8   ar
    25     8     9   ar
    26    12    13   ar
    27    13    14   ar
    28    14    10   ar
    29     9     1   ar
    30     9     4   ar
    31    30    24   ar
    32    20    21    1
    33    14    15    1
@<TRIPOS>MOLECULE
*****
 30 33 0 0 0
SMALL
GASTEIGER

@<TRIPOS>ATOM
      1 N         139.4358  143.2549  163.8264 N.ar    1  UNL1       -0.2558
      2 C         138.2047  143.9682  163.3515 C.ar    1  UNL1        0.1852
      3 N         138.5657  144.7465  162.1211 N.ar    1  UNL1       -0.2204
      4 C         140.0198  144.5142  161.8356 C.ar    1  UNL1        0.1366
      5 C         140.9237  145.0231  160.7521 C.ar    1  UNL1        0.1240
      6 N         142.3654  144.6100  160.7226 N.ar    1  UNL1       -0.2106
      7 C         142.9032  143.6881  161.7766 C.ar    1  UNL1        0.2186
      8 N         141.9993  143.1793  162.8601 N.ar    1  UNL1       -0.1944
      9 C         140.5576  143.5923  162.8896 C.ar    1  UNL1        0.1722
     10 C         140.0799  141.5051  167.2306 C.ar    1  UNL1        0.2216
     11 C         140.2435  142.6763  166.3079 C.ar    1  UNL1        0.0962
     12 C         139.5288  142.3610  165.0274 C.ar    1  UNL1        0.1740
     13 N         138.9235  140.9949  165.1587 N.ar    1  UNL1       -0.1520
     14 N         139.2640  140.4658  166.5204 N.ar    1  UNL1       -0.2444
     15 H         138.9986  139.5903  166.8841 H       1  UNL1        0.1921
     16 O         140.6347  141.3928  168.6198 O.3     1  UNL1       -0.4643
     17 C         142.9021  142.5173  169.2068 C.3     1  UNL1        0.0473
     18 C         141.4022  142.5356  169.2155 C.3     1  UNL1        0.1678
     19 C         140.6698  143.6968  169.8199 C.3     1  UNL1        0.0473
     20 N         144.3449  143.2751  161.7470 N.pl3   1  UNL1       -0.2981
     21 H         145.0190  143.8692  161.3447 H       1  UNL1        0.1500
     22 C         144.7595  141.9569  162.3304 C.3     1  UNL1        0.1306
     23 C         145.6233  141.9175  163.5562 C.3     1  UNL1        0.0295
     24 C         144.3105  140.6779  161.6880 C.ar    1  UNL1        0.1570
     25 N         143.9427  140.6577  160.2339 N.ar    1  UNL1       -0.2251
     26 C         143.4936  139.3788  159.5916 C.ar    1  UNL1        0.1314
     27 C         143.4123  138.1200  160.4032 C.ar    1  UNL1        0.1783
     28 F         142.9633  136.8411  159.7608 F       1  UNL1       -0.2009
     29 C         143.7801  138.1402  161.8574 C.ar    1  UNL1        0.1314
     30 N         144.2292  139.4191  162.4997 N.ar    1  UNL1       -0.2251
@<TRIPOS>BOND
     1    17    18    1
     2    18    19    1
     3    18    16    1
     4    16    10    1
     5    10    11   ar
     6    11    12   ar
     7    12     1    1
     8     1     2   ar
     9     2     3   ar
    10     3     4   ar
    11     4     5   ar
    12     5     6   ar
    13     6     7   ar
    14     7    20    1
    15    20    22    1
    16    22    23    1
    17    22    24    1
    18    24    25   ar
    19    25    26   ar
    20    26    27   ar
    21    27    28    1
    22    27    29   ar
    23    29    30   ar
    24     7     8   ar
    25     8     9   ar
    26    12    13   ar
    27    13    14   ar
    28    14    10   ar
    29     9     1   ar
    30     9     4   ar
    31    30    24   ar
    32    20    21    1
    33    14    15    1
