@<TRIPOS>MOLECULE
*****
 43 47 0 0 0
SMALL
GASTEIGER

@<TRIPOS>ATOM
      1 C         141.2179  142.1223  161.9254 C.3     1  UNL1        0.0765
      2 C         142.6919  142.3124  161.7227 C.3     1  UNL1        0.0246
      3 C         143.1951  143.0328  160.5071 C.3     1  UNL1        0.0277
      4 C         142.2242  143.5631  159.4941 C.ar    1  UNL1       -0.0258
      5 C         142.7274  144.2835  158.2783 C.ar    1  UNL1       -0.0014
      6 C         141.7565  144.8137  157.2653 C.ar    1  UNL1        0.0371
      7 C         140.2824  144.6236  157.4680 C.ar    1  UNL1        0.1450
      8 C         139.7793  143.9033  158.6837 C.ar    1  UNL1        0.0330
      9 C         140.7502  143.3730  159.6967 C.ar    1  UNL1       -0.0215
     10 C         140.2470  142.6526  160.9124 C.3     1  UNL1        0.0457
     11 C         140.6453  142.1137  164.4596 C.2     1  UNL1        0.2458
     12 O         141.0792  143.5460  164.5625 O.2     1  UNL1       -0.2701
     13 N         140.7147  141.4019  163.1411 N.am    1  UNL1       -0.3021
     14 H         140.4300  140.4619  163.0736 H       1  UNL1        0.1497
     15 C         139.8654  141.2547  168.2548 C.ar    1  UNL1       -0.0097
     16 C         140.3686  141.9751  167.0392 C.ar    1  UNL1        0.0015
     17 C         140.1421  141.3934  165.6753 C.ar    1  UNL1        0.0530
     18 C         139.4125  140.0912  165.5271 C.ar    1  UNL1        0.0083
     19 C         138.9093  139.3708  166.7427 C.ar    1  UNL1        0.0713
     20 C         139.1358  139.9526  168.1066 C.ar    1  UNL1        0.0008
     21 C         140.5607  143.1174  168.9947 C.3     1  UNL1        0.0201
     22 C         140.0918  141.8365  169.6188 C.3     1  UNL1        0.0582
     23 C         139.6230  140.5557  170.2429 C.3     1  UNL1        0.0201
     24 N         140.3183  142.4182  170.9827 N.3     1  UNL1       -0.3200
     25 H         140.6702  143.3712  170.8917 H       1  UNL1        0.1191
     26 H         141.0003  141.8505  171.4855 H       1  UNL1        0.1191
     27 C         138.1797  138.0686  166.5944 C.3     1  UNL1        0.4186
     28 F         137.4500  136.7665  166.4462 F       1  UNL1       -0.1659
     29 F         137.2314  138.4761  167.6829 F       1  UNL1       -0.1659
     30 F         139.1280  137.6612  165.5060 F       1  UNL1       -0.1659
     31 O         139.3115  145.1539  156.4550 O.3     1  UNL1       -0.4537
     32 C         139.7983  146.0206  155.3316 C.ar    1  UNL1        0.1455
     33 C         140.5845  145.4174  154.2055 C.ar    1  UNL1        0.0579
     34 C         141.0713  146.2840  153.0821 C.ar    1  UNL1        0.1034
     35 N         140.7719  147.7538  153.0848 N.ar    1  UNL1       -0.2291
     36 C         139.9856  148.3570  154.2109 C.ar    1  UNL1        0.1330
     37 C         139.4989  147.4904  155.3343 C.ar    1  UNL1        0.0445
     38 C         138.7127  148.0935  156.4604 C.3     1  UNL1        0.0419
     39 C         138.4132  149.5633  156.4631 C.3     1  UNL1        0.0903
     40 C         138.9000  150.4300  155.3397 C.2     1  UNL1        0.2275
     41 O         138.6006  151.8998  155.3424 O.2     1  UNL1       -0.2747
     42 N         139.6862  149.8268  154.2136 N.am    1  UNL1       -0.2695
     43 H         140.0057  150.3956  153.4763 H       1  UNL1        0.1562
@<TRIPOS>BOND
     1    21    22    1
     2    22    23    1
     3    22    24    1
     4    22    15    1
     5    15    16   ar
     6    16    17   ar
     7    17    11    1
     8    11    12    2
     9    11    13   am
    10     1    13    1
    11     1     2    1
    12     2     3    1
    13     3     4    1
    14     4     5   ar
    15     5     6   ar
    16     6     7   ar
    17     7    31    1
    18    31    32    1
    19    32    33   ar
    20    33    34   ar
    21    34    35   ar
    22    35    36   ar
    23    36    37   ar
    24    37    38    1
    25    38    39    1
    26    39    40    1
    27    40    41    2
    28    40    42   am
    29     7     8   ar
    30     8     9   ar
    31     9    10    1
    32    17    18   ar
    33    18    19   ar
    34    19    27    1
    35    27    28    1
    36    27    29    1
    37    27    30    1
    38    19    20   ar
    39    20    15   ar
    40    10     1    1
    41     9     4   ar
    42    37    32   ar
    43    42    36    1
    44    24    25    1
    45    24    26    1
    46    13    14    1
    47    42    43    1
@<TRIPOS>MOLECULE
*****
 43 47 0 0 0
SMALL
GASTEIGER

@<TRIPOS>ATOM
      1 C         139.7597  143.4382  162.6472 C.3     1  UNL1        0.0765
      2 C         139.7042  144.9357  162.7130 C.3     1  UNL1        0.0246
      3 C         140.0968  145.7539  161.5188 C.3     1  UNL1        0.0277
      4 C         140.5449  145.0746  160.2587 C.ar    1  UNL1       -0.0258
      5 C         140.9375  145.8930  159.0644 C.ar    1  UNL1       -0.0014
      6 C         141.3856  145.2137  157.8043 C.ar    1  UNL1        0.0371
      7 C         141.4411  143.7161  157.7386 C.ar    1  UNL1        0.1450
      8 C         141.0485  142.8979  158.9328 C.ar    1  UNL1        0.0330
      9 C         140.6004  143.5772  160.1929 C.ar    1  UNL1       -0.0215
     10 C         140.2078  142.7589  161.3872 C.3     1  UNL1        0.0457
     11 C         140.3317  142.4376  164.9757 C.2     1  UNL1        0.2458
     12 O         141.6889  143.0735  164.9156 O.2     1  UNL1       -0.2701
     13 N         139.3671  142.6199  163.8416 N.am    1  UNL1       -0.3021
     14 H         138.4764  142.2025  163.8810 H       1  UNL1        0.1497
     15 C         139.9338  141.2508  168.7418 C.ar    1  UNL1       -0.0097
     16 C         140.3264  142.0691  167.5475 C.ar    1  UNL1        0.0015
     17 C         139.9391  141.6193  166.1700 C.ar    1  UNL1        0.0530
     18 C         139.1592  140.3511  165.9867 C.ar    1  UNL1        0.0083
     19 C         138.7666  139.5328  167.1809 C.ar    1  UNL1        0.0713
     20 C         139.1539  139.9827  168.5585 C.ar    1  UNL1        0.0008
     21 C         140.2676  140.2802  170.5983 C.3     1  UNL1        0.0201
     22 C         140.3210  141.7007  170.1194 C.3     1  UNL1        0.0582
     23 C         140.3744  143.1211  169.6405 C.3     1  UNL1        0.0201
     24 N         140.7083  142.1505  171.4969 N.3     1  UNL1       -0.3200
     25 H         140.7618  141.3418  172.1162 H       1  UNL1        0.1191
     26 H         140.0091  142.8037  171.8503 H       1  UNL1        0.1191
     27 C         137.9868  138.2647  166.9976 C.3     1  UNL1        0.4186
     28 F         137.2069  136.9965  166.8143 F       1  UNL1       -0.1659
     29 F         138.8347  137.9147  165.8108 F       1  UNL1       -0.1659
     30 F         137.1388  138.6146  168.1845 F       1  UNL1       -0.1659
     31 O         141.8893  143.0368  156.4785 O.3     1  UNL1       -0.4537
     32 C         142.9901  142.0190  156.5259 C.ar    1  UNL1        0.1455
     33 C         144.4213  142.4643  156.5847 C.ar    1  UNL1        0.0579
     34 C         145.5222  141.4465  156.6321 C.ar    1  UNL1        0.1034
     35 N         145.1918  139.9834  156.6206 N.ar    1  UNL1       -0.2291
     36 C         143.7606  139.5381  156.5618 C.ar    1  UNL1        0.1330
     37 C         142.6598  140.5559  156.5145 C.ar    1  UNL1        0.0445
     38 C         141.2286  140.1106  156.4557 C.3     1  UNL1        0.0419
     39 C         140.8982  138.6475  156.4442 C.3     1  UNL1        0.0903
     40 C         141.9991  137.6296  156.4916 C.2     1  UNL1        0.2275
     41 O         141.6688  136.1665  156.4802 O.2     1  UNL1       -0.2747
     42 N         143.4302  138.0750  156.5504 N.am    1  UNL1       -0.2695
     43 H         144.1528  137.4069  156.5815 H       1  UNL1        0.1562
@<TRIPOS>BOND
     1    21    22    1
     2    22    23    1
     3    22    24    1
     4    22    15    1
     5    15    16   ar
     6    16    17   ar
     7    17    11    1
     8    11    12    2
     9    11    13   am
    10     1    13    1
    11     1     2    1
    12     2     3    1
    13     3     4    1
    14     4     5   ar
    15     5     6   ar
    16     6     7   ar
    17     7    31    1
    18    31    32    1
    19    32    33   ar
    20    33    34   ar
    21    34    35   ar
    22    35    36   ar
    23    36    37   ar
    24    37    38    1
    25    38    39    1
    26    39    40    1
    27    40    41    2
    28    40    42   am
    29     7     8   ar
    30     8     9   ar
    31     9    10    1
    32    17    18   ar
    33    18    19   ar
    34    19    27    1
    35    27    28    1
    36    27    29    1
    37    27    30    1
    38    19    20   ar
    39    20    15   ar
    40    10     1    1
    41     9     4   ar
    42    37    32   ar
    43    42    36    1
    44    24    25    1
    45    24    26    1
    46    13    14    1
    47    42    43    1
@<TRIPOS>MOLECULE
*****
 43 47 0 0 0
SMALL
GASTEIGER

@<TRIPOS>ATOM
      1 C         140.2738  141.8692  161.4902 C.3     1  UNL1        0.0765
      2 C         140.5260  143.2748  161.0315 C.3     1  UNL1        0.0246
      3 C         139.9767  143.7448  159.7173 C.3     1  UNL1        0.0277
      4 C         139.1751  142.8091  158.8617 C.ar    1  UNL1       -0.0258
      5 C         138.6258  143.2792  157.5474 C.ar    1  UNL1       -0.0014
      6 C         137.8242  142.3435  156.6918 C.ar    1  UNL1        0.0371
      7 C         137.5721  140.9378  157.1505 C.ar    1  UNL1        0.1450
      8 C         138.1214  140.4678  158.4648 C.ar    1  UNL1        0.0330
      9 C         138.9229  141.4035  159.3204 C.ar    1  UNL1       -0.0215
     10 C         139.4723  140.9335  160.6346 C.3     1  UNL1        0.0457
     11 C         139.9907  141.5081  164.0474 C.2     1  UNL1        0.2458
     12 O         138.6088  142.0872  163.9762 O.2     1  UNL1       -0.2701
     13 N         140.8232  141.3991  162.8045 N.am    1  UNL1       -0.3021
     14 H         141.7302  141.0190  162.8513 H       1  UNL1        0.1497
     15 C         140.5548  141.1342  167.9579 C.ar    1  UNL1       -0.0097
     16 C         140.0054  141.6043  166.6437 C.ar    1  UNL1        0.0015
     17 C         140.5400  141.0380  165.3617 C.ar    1  UNL1        0.0530
     18 C         141.6240  140.0017  165.3940 C.ar    1  UNL1        0.0083
     19 C         142.1734  139.5316  166.7082 C.ar    1  UNL1        0.0713
     20 C         141.6388  140.0979  167.9902 C.ar    1  UNL1        0.0008
     21 C         139.2951  140.4146  169.5057 C.3     1  UNL1        0.0201
     22 C         140.0202  141.7005  169.2400 C.3     1  UNL1        0.0582
     23 C         140.7453  142.9864  168.9743 C.3     1  UNL1        0.0201
     24 N         139.4857  142.2668  170.5220 N.3     1  UNL1       -0.3200
     25 H         138.8996  141.5707  170.9829 H       1  UNL1        0.1191
     26 H         138.9310  143.0989  170.3210 H       1  UNL1        0.1191
     27 C         143.2573  138.4953  166.7404 C.3     1  UNL1        0.4186
     28 F         144.3413  137.4590  166.7727 F       1  UNL1       -0.1659
     29 F         143.3084  138.5021  165.2413 F       1  UNL1       -0.1659
     30 F         143.2063  138.4885  168.2395 F       1  UNL1       -0.1659
     31 O         136.7705  140.0021  156.2950 O.3     1  UNL1       -0.4537
     32 C         135.7479  140.5469  155.3423 C.ar    1  UNL1        0.1455
     33 C         136.1832  141.1577  154.0433 C.ar    1  UNL1        0.0579
     34 C         135.1606  141.7025  153.0907 C.ar    1  UNL1        0.1034
     35 N         133.7026  141.6365  153.4370 N.ar    1  UNL1       -0.2291
     36 C         133.2673  141.0256  154.7361 C.ar    1  UNL1        0.1330
     37 C         134.2899  140.4809  155.6887 C.ar    1  UNL1        0.0445
     38 C         133.8546  139.8700  156.9877 C.3     1  UNL1        0.0419
     39 C         132.3966  139.8040  157.3341 C.3     1  UNL1        0.0903
     40 C         131.3740  140.3488  156.3814 C.2     1  UNL1        0.2275
     41 O         129.9160  140.2828  156.7278 O.2     1  UNL1       -0.2747
     42 N         131.8093  140.9596  155.0825 N.am    1  UNL1       -0.2695
     43 H         131.1382  141.3172  154.4572 H       1  UNL1        0.1562
@<TRIPOS>BOND
     1    21    22    1
     2    22    23    1
     3    22    24    1
     4    22    15    1
     5    15    16   ar
     6    16    17   ar
     7    17    11    1
     8    11    12    2
     9    11    13   am
    10     1    13    1
    11     1     2    1
    12     2     3    1
    13     3     4    1
    14     4     5   ar
    15     5     6   ar
    16     6     7   ar
    17     7    31    1
    18    31    32    1
    19    32    33   ar
    20    33    34   ar
    21    34    35   ar
    22    35    36   ar
    23    36    37   ar
    24    37    38    1
    25    38    39    1
    26    39    40    1
    27    40    41    2
    28    40    42   am
    29     7     8   ar
    30     8     9   ar
    31     9    10    1
    32    17    18   ar
    33    18    19   ar
    34    19    27    1
    35    27    28    1
    36    27    29    1
    37    27    30    1
    38    19    20   ar
    39    20    15   ar
    40    10     1    1
    41     9     4   ar
    42    37    32   ar
    43    42    36    1
    44    24    25    1
    45    24    26    1
    46    13    14    1
    47    42    43    1
@<TRIPOS>MOLECULE
*****
 43 47 0 0 0
SMALL
GASTEIGER

@<TRIPOS>ATOM
      1 C         141.2523  139.6280  159.2235 C.3     1  UNL1        0.0765
      2 C         140.9157  140.5964  158.1287 C.3     1  UNL1        0.0246
      3 C         141.2542  140.2662  156.7052 C.3     1  UNL1        0.0277
      4 C         141.9291  138.9676  156.3765 C.ar    1  UNL1       -0.0258
      5 C         142.2675  138.6374  154.9530 C.ar    1  UNL1       -0.0014
      6 C         142.9425  137.3388  154.6243 C.ar    1  UNL1        0.0371
      7 C         143.2791  136.3704  155.7193 C.ar    1  UNL1        0.1450
      8 C         142.9407  136.7006  157.1428 C.ar    1  UNL1        0.0330
      9 C         142.2657  137.9992  157.4714 C.ar    1  UNL1       -0.0215
     10 C         141.9273  138.3294  158.8949 C.3     1  UNL1        0.0457
     11 C         139.5352  139.6876  161.1724 C.2     1  UNL1        0.2458
     12 O         138.4949  139.0869  160.2742 O.2     1  UNL1       -0.2701
     13 N         140.9139  139.9582  160.6471 N.am    1  UNL1       -0.3021
     14 H         141.5967  140.3525  161.2367 H       1  UNL1        0.1497
     15 C         138.8666  141.7752  164.4808 C.ar    1  UNL1       -0.0097
     16 C         139.2050  141.4451  163.0572 C.ar    1  UNL1        0.0015
     17 C         139.1968  140.0178  162.5960 C.ar    1  UNL1        0.0530
     18 C         138.8502  138.9206  163.5583 C.ar    1  UNL1        0.0083
     19 C         138.5118  139.2507  164.9819 C.ar    1  UNL1        0.0713
     20 C         138.5200  140.6780  165.4431 C.ar    1  UNL1        0.0008
     21 C         137.7460  143.5122  164.0041 C.3     1  UNL1        0.0201
     22 C         138.8748  143.2025  164.9420 C.3     1  UNL1        0.0582
     23 C         140.0037  142.8929  165.8800 C.3     1  UNL1        0.0201
     24 N         138.8831  144.6298  165.4033 N.3     1  UNL1       -0.3200
     25 H         138.1612  145.1518  164.9065 H       1  UNL1        0.1191
     26 H         139.7952  145.0439  165.2112 H       1  UNL1        0.1191
     27 C         138.1652  138.1536  165.9442 C.3     1  UNL1        0.4186
     28 F         137.8185  137.0564  166.9065 F       1  UNL1       -0.1659
     29 F         137.4054  139.1337  166.7880 F       1  UNL1       -0.1659
     30 F         138.9249  137.1734  165.1004 F       1  UNL1       -0.1659
     31 O         143.9541  135.0718  155.3907 O.3     1  UNL1       -0.4537
     32 C         143.1626  133.7976  155.3769 C.ar    1  UNL1        0.1455
     33 C         141.9590  133.6718  154.4907 C.ar    1  UNL1        0.0579
     34 C         141.1675  132.3976  154.4770 C.ar    1  UNL1        0.1034
     35 N         141.5798  131.2492  155.3494 N.ar    1  UNL1       -0.2291
     36 C         142.7835  131.3750  156.2357 C.ar    1  UNL1        0.1330
     37 C         143.5749  132.6492  156.2494 C.ar    1  UNL1        0.0445
     38 C         144.7786  132.7749  157.1357 C.3     1  UNL1        0.0419
     39 C         145.1908  131.6265  158.0081 C.3     1  UNL1        0.0903
     40 C         144.3993  130.3523  157.9944 C.2     1  UNL1        0.2275
     41 O         144.8116  129.2039  158.8669 O.2     1  UNL1       -0.2747
     42 N         143.1957  130.2266  157.1082 N.am    1  UNL1       -0.2695
     43 H         142.6763  129.3903  157.0991 H       1  UNL1        0.1562
@<TRIPOS>BOND
     1    21    22    1
     2    22    23    1
     3    22    24    1
     4    22    15    1
     5    15    16   ar
     6    16    17   ar
     7    17    11    1
     8    11    12    2
     9    11    13   am
    10     1    13    1
    11     1     2    1
    12     2     3    1
    13     3     4    1
    14     4     5   ar
    15     5     6   ar
    16     6     7   ar
    17     7    31    1
    18    31    32    1
    19    32    33   ar
    20    33    34   ar
    21    34    35   ar
    22    35    36   ar
    23    36    37   ar
    24    37    38    1
    25    38    39    1
    26    39    40    1
    27    40    41    2
    28    40    42   am
    29     7     8   ar
    30     8     9   ar
    31     9    10    1
    32    17    18   ar
    33    18    19   ar
    34    19    27    1
    35    27    28    1
    36    27    29    1
    37    27    30    1
    38    19    20   ar
    39    20    15   ar
    40    10     1    1
    41     9     4   ar
    42    37    32   ar
    43    42    36    1
    44    24    25    1
    45    24    26    1
    46    13    14    1
    47    42    43    1
@<TRIPOS>MOLECULE
*****
 43 47 0 0 0
SMALL
GASTEIGER

@<TRIPOS>ATOM
      1 C         142.4454  141.7678  161.9379 C.3     1  UNL1        0.0765
      2 C         143.1383  143.0423  161.5562 C.3     1  UNL1        0.0246
      3 C         143.8425  143.1467  160.2359 C.3     1  UNL1        0.0277
      4 C         143.8538  141.9766  159.2973 C.ar    1  UNL1       -0.0258
      5 C         144.5581  142.0811  157.9770 C.ar    1  UNL1       -0.0014
      6 C         144.5694  140.9111  157.0384 C.ar    1  UNL1        0.0371
      7 C         143.8765  139.6366  157.4202 C.ar    1  UNL1        0.1450
      8 C         143.1723  139.5322  158.7404 C.ar    1  UNL1        0.0330
      9 C         143.1609  140.7022  159.6790 C.ar    1  UNL1       -0.0215
     10 C         142.4567  140.5978  160.9993 C.3     1  UNL1        0.0457
     11 C         142.5331  141.4721  164.5176 C.2     1  UNL1        0.2458
     12 O         144.0294  141.3853  164.4568 O.2     1  UNL1       -0.2701
     13 N         141.7411  141.6634  163.2582 N.am    1  UNL1       -0.3021
     14 H         140.7591  141.7204  163.2981 H       1  UNL1        0.1497
     15 C         141.6165  142.0524  168.3351 C.ar    1  UNL1       -0.0097
     16 C         142.3208  142.1568  167.0148 C.ar    1  UNL1        0.0015
     17 C         141.8289  141.3677  165.8379 C.ar    1  UNL1        0.0530
     18 C         140.6327  140.4740  165.9812 C.ar    1  UNL1        0.0083
     19 C         139.9285  140.3695  167.3015 C.ar    1  UNL1        0.0713
     20 C         140.4204  141.1587  168.4784 C.ar    1  UNL1        0.0008
     21 C         140.7573  143.4781  169.6500 C.3     1  UNL1        0.0201
     22 C         142.1084  142.8416  169.5121 C.3     1  UNL1        0.0582
     23 C         143.4596  142.2050  169.3741 C.3     1  UNL1        0.0201
     24 N         142.6003  143.6307  170.6890 N.3     1  UNL1       -0.3200
     25 H         141.8456  144.2177  171.0442 H       1  UNL1        0.1191
     26 H         143.3820  144.2193  170.4009 H       1  UNL1        0.1191
     27 C         138.7323  139.4758  167.4448 C.3     1  UNL1        0.4186
     28 F         137.5361  138.5821  167.5881 F       1  UNL1       -0.1659
     29 F         138.8486  139.0885  166.0004 F       1  UNL1       -0.1659
     30 F         138.6160  139.8632  168.8893 F       1  UNL1       -0.1659
     31 O         143.8878  138.4666  156.4816 O.3     1  UNL1       -0.4537
     32 C         142.5959  137.8355  156.0541 C.ar    1  UNL1        0.1455
     33 C         141.4224  138.6981  155.6953 C.ar    1  UNL1        0.0579
     34 C         140.1304  138.0670  155.2679 C.ar    1  UNL1        0.1034
     35 N         140.0121  136.5732  155.1992 N.ar    1  UNL1       -0.2291
     36 C         141.1856  135.7106  155.5580 C.ar    1  UNL1        0.1330
     37 C         142.4775  136.3417  155.9854 C.ar    1  UNL1        0.0445
     38 C         143.6511  135.4791  156.3442 C.3     1  UNL1        0.0419
     39 C         143.5327  133.9854  156.2756 C.3     1  UNL1        0.0903
     40 C         142.2408  133.3542  155.8481 C.2     1  UNL1        0.2275
     41 O         142.1224  131.8605  155.7794 O.2     1  UNL1       -0.2747
     42 N         141.0673  134.2169  155.4893 N.am    1  UNL1       -0.2695
     43 H         140.2194  133.8026  155.2087 H       1  UNL1        0.1562
@<TRIPOS>BOND
     1    21    22    1
     2    22    23    1
     3    22    24    1
     4    22    15    1
     5    15    16   ar
     6    16    17   ar
     7    17    11    1
     8    11    12    2
     9    11    13   am
    10     1    13    1
    11     1     2    1
    12     2     3    1
    13     3     4    1
    14     4     5   ar
    15     5     6   ar
    16     6     7   ar
    17     7    31    1
    18    31    32    1
    19    32    33   ar
    20    33    34   ar
    21    34    35   ar
    22    35    36   ar
    23    36    37   ar
    24    37    38    1
    25    38    39    1
    26    39    40    1
    27    40    41    2
    28    40    42   am
    29     7     8   ar
    30     8     9   ar
    31     9    10    1
    32    17    18   ar
    33    18    19   ar
    34    19    27    1
    35    27    28    1
    36    27    29    1
    37    27    30    1
    38    19    20   ar
    39    20    15   ar
    40    10     1    1
    41     9     4   ar
    42    37    32   ar
    43    42    36    1
    44    24    25    1
    45    24    26    1
    46    13    14    1
    47    42    43    1
@<TRIPOS>MOLECULE
*****
 43 47 0 0 0
SMALL
GASTEIGER

@<TRIPOS>ATOM
      1 C         139.7907  143.4375  162.5251 C.3     1  UNL1        0.0765
      2 C         139.9344  144.9304  162.5023 C.3     1  UNL1        0.0246
      3 C         140.3427  145.6253  161.2372 C.3     1  UNL1        0.0277
      4 C         140.6073  144.8272  159.9950 C.ar    1  UNL1       -0.0258
      5 C         141.0156  145.5222  158.7299 C.ar    1  UNL1       -0.0014
      6 C         141.2802  144.7242  157.4876 C.ar    1  UNL1        0.0371
      7 C         141.1364  143.2312  157.5105 C.ar    1  UNL1        0.1450
      8 C         140.7282  142.5363  158.7755 C.ar    1  UNL1        0.0330
      9 C         140.4636  143.3343  160.0178 C.ar    1  UNL1       -0.0215
     10 C         140.0553  142.6395  161.2828 C.3     1  UNL1        0.0457
     11 C         140.4272  142.1791  164.7071 C.2     1  UNL1        0.2458
     12 O         141.8803  142.3105  164.3591 O.2     1  UNL1       -0.2701
     13 N         139.3824  142.7425  163.7902 N.am    1  UNL1       -0.3021
     14 H         138.4287  142.6563  164.0186 H       1  UNL1        0.1497
     15 C         140.0615  141.3221  168.5648 C.ar    1  UNL1       -0.0097
     16 C         140.4698  142.0171  167.2998 C.ar    1  UNL1        0.0015
     17 C         140.0189  141.4841  165.9722 C.ar    1  UNL1        0.0530
     18 C         139.1597  140.2562  165.9096 C.ar    1  UNL1        0.0083
     19 C         138.7514  139.5612  167.1746 C.ar    1  UNL1        0.0713
     20 C         139.2023  140.0942  168.5022 C.ar    1  UNL1        0.0008
     21 C         140.5818  143.2374  169.3141 C.3     1  UNL1        0.0201
     22 C         140.5124  141.8551  169.8925 C.3     1  UNL1        0.0582
     23 C         140.4430  140.4729  170.4709 C.3     1  UNL1        0.0201
     24 N         140.9633  142.3880  171.2202 N.3     1  UNL1       -0.3200
     25 H         141.1099  143.3950  171.1503 H       1  UNL1        0.1191
     26 H         141.8366  141.9351  171.4895 H       1  UNL1        0.1191
     27 C         137.8922  138.3333  167.1120 C.3     1  UNL1        0.4186
     28 F         137.0330  137.1053  167.0495 F       1  UNL1       -0.1659
     29 F         138.5549  137.9350  165.8267 F       1  UNL1       -0.1659
     30 F         137.2294  138.7315  168.3974 F       1  UNL1       -0.1659
     31 O         141.4010  142.4332  156.2682 O.3     1  UNL1       -0.4537
     32 C         142.2311  141.1858  156.3407 C.ar    1  UNL1        0.1455
     33 C         141.5798  139.8678  156.6381 C.ar    1  UNL1        0.0579
     34 C         142.4098  138.6204  156.7106 C.ar    1  UNL1        0.1034
     35 N         143.8912  138.6912  156.4857 N.ar    1  UNL1       -0.2291
     36 C         144.5425  140.0093  156.1882 C.ar    1  UNL1        0.1330
     37 C         143.7124  141.2566  156.1158 C.ar    1  UNL1        0.0445
     38 C         144.3637  142.5748  155.8184 C.3     1  UNL1        0.0419
     39 C         145.8451  142.6456  155.5934 C.3     1  UNL1        0.0903
     40 C         146.6751  141.3982  155.6659 C.2     1  UNL1        0.2275
     41 O         148.1565  141.4690  155.4410 O.2     1  UNL1       -0.2747
     42 N         146.0238  140.0801  155.9633 N.am    1  UNL1       -0.2695
     43 H         146.5686  139.2615  156.0109 H       1  UNL1        0.1562
@<TRIPOS>BOND
     1    21    22    1
     2    22    23    1
     3    22    24    1
     4    22    15    1
     5    15    16   ar
     6    16    17   ar
     7    17    11    1
     8    11    12    2
     9    11    13   am
    10     1    13    1
    11     1     2    1
    12     2     3    1
    13     3     4    1
    14     4     5   ar
    15     5     6   ar
    16     6     7   ar
    17     7    31    1
    18    31    32    1
    19    32    33   ar
    20    33    34   ar
    21    34    35   ar
    22    35    36   ar
    23    36    37   ar
    24    37    38    1
    25    38    39    1
    26    39    40    1
    27    40    41    2
    28    40    42   am
    29     7     8   ar
    30     8     9   ar
    31     9    10    1
    32    17    18   ar
    33    18    19   ar
    34    19    27    1
    35    27    28    1
    36    27    29    1
    37    27    30    1
    38    19    20   ar
    39    20    15   ar
    40    10     1    1
    41     9     4   ar
    42    37    32   ar
    43    42    36    1
    44    24    25    1
    45    24    26    1
    46    13    14    1
    47    42    43    1
@<TRIPOS>MOLECULE
*****
 43 47 0 0 0
SMALL
GASTEIGER

@<TRIPOS>ATOM
      1 C         139.8535  137.8022  156.0786 C.3     1  UNL1        0.0765
      2 C         139.5570  138.5607  154.8189 C.3     1  UNL1        0.0246
      3 C         139.0302  139.9631  154.8943 C.3     1  UNL1        0.0277
      4 C         138.8000  140.6071  156.2293 C.ar    1  UNL1       -0.0258
      5 C         138.2733  142.0096  156.3046 C.ar    1  UNL1       -0.0014
      6 C         138.0431  142.6536  157.6396 C.ar    1  UNL1        0.0371
      7 C         138.3397  141.8951  158.8993 C.ar    1  UNL1        0.1450
      8 C         138.8664  140.4926  158.8240 C.ar    1  UNL1        0.0330
      9 C         139.0966  139.8487  157.4889 C.ar    1  UNL1       -0.0215
     10 C         139.6233  138.4462  157.4136 C.3     1  UNL1        0.0457
     11 C         141.8598  136.1534  156.0003 C.2     1  UNL1        0.2458
     12 O         142.8128  137.3096  156.0726 O.2     1  UNL1       -0.2701
     13 N         140.3802  136.3997  156.0032 N.am    1  UNL1       -0.3021
     14 H         139.7548  135.6409  155.9557 H       1  UNL1        0.1497
     15 C         142.3268  132.3788  154.8670 C.ar    1  UNL1       -0.0097
     16 C         141.8000  133.7813  154.9423 C.ar    1  UNL1        0.0015
     17 C         142.3866  134.7509  155.9249 C.ar    1  UNL1        0.0530
     18 C         143.4999  134.3182  156.8323 C.ar    1  UNL1        0.0083
     19 C         144.0267  132.9158  156.7570 C.ar    1  UNL1        0.0713
     20 C         143.4401  131.9461  155.7744 C.ar    1  UNL1        0.0008
     21 C         140.6065  131.1380  154.8285 C.3     1  UNL1        0.0201
     22 C         141.7402  131.4091  153.8844 C.3     1  UNL1        0.0582
     23 C         142.8738  131.6801  152.9403 C.3     1  UNL1        0.0201
     24 N         141.1537  130.4393  152.9018 N.3     1  UNL1       -0.3200
     25 H         140.2939  130.0458  153.2843 H       1  UNL1        0.1191
     26 H         141.8216  129.6891  152.7245 H       1  UNL1        0.1191
     27 C         145.1400  132.4831  157.6643 C.3     1  UNL1        0.4186
     28 F         146.2533  132.0504  158.5717 F       1  UNL1       -0.1659
     29 F         144.6874  133.4763  158.6933 F       1  UNL1       -0.1659
     30 F         145.5925  131.4899  156.6354 F       1  UNL1       -0.1659
     31 O         138.1095  142.5390  160.2344 O.3     1  UNL1       -0.4537
     32 C         139.2019  143.3396  160.8792 C.ar    1  UNL1        0.1455
     33 C         140.4617  143.6364  160.1212 C.ar    1  UNL1        0.0579
     34 C         141.5541  144.4370  160.7660 C.ar    1  UNL1        0.1034
     35 N         141.3866  144.9408  162.1689 N.ar    1  UNL1       -0.2291
     36 C         140.1267  144.6440  162.9270 C.ar    1  UNL1        0.1330
     37 C         139.0344  143.8434  162.2821 C.ar    1  UNL1        0.0445
     38 C         137.7744  143.5466  163.0402 C.3     1  UNL1        0.0419
     39 C         137.6069  144.0504  164.4431 C.3     1  UNL1        0.0903
     40 C         138.6993  144.8510  165.0879 C.2     1  UNL1        0.2275
     41 O         138.5318  145.3548  166.4908 O.2     1  UNL1       -0.2747
     42 N         139.9592  145.1478  164.3299 N.am    1  UNL1       -0.2695
     43 H         140.6761  145.6732  164.7531 H       1  UNL1        0.1562
@<TRIPOS>BOND
     1    21    22    1
     2    22    23    1
     3    22    24    1
     4    22    15    1
     5    15    16   ar
     6    16    17   ar
     7    17    11    1
     8    11    12    2
     9    11    13   am
    10     1    13    1
    11     1     2    1
    12     2     3    1
    13     3     4    1
    14     4     5   ar
    15     5     6   ar
    16     6     7   ar
    17     7    31    1
    18    31    32    1
    19    32    33   ar
    20    33    34   ar
    21    34    35   ar
    22    35    36   ar
    23    36    37   ar
    24    37    38    1
    25    38    39    1
    26    39    40    1
    27    40    41    2
    28    40    42   am
    29     7     8   ar
    30     8     9   ar
    31     9    10    1
    32    17    18   ar
    33    18    19   ar
    34    19    27    1
    35    27    28    1
    36    27    29    1
    37    27    30    1
    38    19    20   ar
    39    20    15   ar
    40    10     1    1
    41     9     4   ar
    42    37    32   ar
    43    42    36    1
    44    24    25    1
    45    24    26    1
    46    13    14    1
    47    42    43    1
@<TRIPOS>MOLECULE
*****
 43 47 0 0 0
SMALL
GASTEIGER

@<TRIPOS>ATOM
      1 C         143.1448  141.3106  163.1531 C.3     1  UNL1        0.0765
      2 C         143.8505  142.6263  163.0091 C.3     1  UNL1        0.0246
      3 C         144.4123  143.0344  161.6795 C.3     1  UNL1        0.0277
      4 C         144.2683  142.1268  160.4939 C.ar    1  UNL1       -0.0258
      5 C         144.8301  142.5350  159.1643 C.ar    1  UNL1       -0.0014
      6 C         144.6862  141.6274  157.9788 C.ar    1  UNL1        0.0371
      7 C         143.9804  140.3116  158.1228 C.ar    1  UNL1        0.1450
      8 C         143.4187  139.9035  159.4524 C.ar    1  UNL1        0.0330
      9 C         143.5626  140.8111  160.6380 C.ar    1  UNL1       -0.0215
     10 C         143.0009  140.4029  161.9675 C.3     1  UNL1        0.0457
     11 C         141.2389  141.4077  164.9160 C.2     1  UNL1        0.2458
     12 O         140.4564  142.3211  164.0198 O.2     1  UNL1       -0.2701
     13 N         142.5830  140.9024  164.4827 N.am    1  UNL1       -0.3021
     14 H         143.0966  140.3028  165.0710 H       1  UNL1        0.1497
     15 C         140.7295  141.1120  168.8407 C.ar    1  UNL1       -0.0097
     16 C         141.2913  141.5202  167.5112 C.ar    1  UNL1        0.0015
     17 C         140.6771  140.9995  166.2457 C.ar    1  UNL1        0.0530
     18 C         139.5010  140.0706  166.3097 C.ar    1  UNL1        0.0083
     19 C         138.9392  139.6624  167.6392 C.ar    1  UNL1        0.0713
     20 C         139.5535  140.1831  168.9047 C.ar    1  UNL1        0.0008
     21 C         140.2502  142.6534  170.2171 C.3     1  UNL1        0.0201
     22 C         141.3437  141.6327  170.1063 C.3     1  UNL1        0.0582
     23 C         142.4373  140.6120  169.9954 C.3     1  UNL1        0.0201
     24 N         141.9580  142.1533  171.3718 N.3     1  UNL1       -0.3200
     25 H         141.3961  142.9257  171.7297 H       1  UNL1        0.1191
     26 H         142.9045  142.4816  171.1803 H       1  UNL1        0.1191
     27 C         137.7632  138.7335  167.7033 C.3     1  UNL1        0.4186
     28 F         136.5871  137.8046  167.7673 F       1  UNL1       -0.1659
     29 F         137.5260  139.1322  169.1297 F       1  UNL1       -0.1659
     30 F         138.0004  138.3349  166.2768 F       1  UNL1       -0.1659
     31 O         143.8364  139.4040  156.9373 O.3     1  UNL1       -0.4537
     32 C         142.4857  138.8718  156.5598 C.ar    1  UNL1        0.1455
     33 C         141.3157  139.8041  156.4519 C.ar    1  UNL1        0.0579
     34 C         139.9649  139.2719  156.0744 C.ar    1  UNL1        0.1034
     35 N         139.7844  137.8075  155.8048 N.ar    1  UNL1       -0.2291
     36 C         140.9545  136.8751  155.9127 C.ar    1  UNL1        0.1330
     37 C         142.3052  137.4073  156.2902 C.ar    1  UNL1        0.0445
     38 C         143.4753  136.4750  156.3981 C.3     1  UNL1        0.0419
     39 C         143.2948  135.0105  156.1285 C.3     1  UNL1        0.0903
     40 C         141.9441  134.4783  155.7510 C.2     1  UNL1        0.2275
     41 O         141.7635  133.0139  155.4814 O.2     1  UNL1       -0.2747
     42 N         140.7740  135.4107  155.6431 N.am    1  UNL1       -0.2695
     43 H         139.8875  135.0614  155.3954 H       1  UNL1        0.1562
@<TRIPOS>BOND
     1    21    22    1
     2    22    23    1
     3    22    24    1
     4    22    15    1
     5    15    16   ar
     6    16    17   ar
     7    17    11    1
     8    11    12    2
     9    11    13   am
    10     1    13    1
    11     1     2    1
    12     2     3    1
    13     3     4    1
    14     4     5   ar
    15     5     6   ar
    16     6     7   ar
    17     7    31    1
    18    31    32    1
    19    32    33   ar
    20    33    34   ar
    21    34    35   ar
    22    35    36   ar
    23    36    37   ar
    24    37    38    1
    25    38    39    1
    26    39    40    1
    27    40    41    2
    28    40    42   am
    29     7     8   ar
    30     8     9   ar
    31     9    10    1
    32    17    18   ar
    33    18    19   ar
    34    19    27    1
    35    27    28    1
    36    27    29    1
    37    27    30    1
    38    19    20   ar
    39    20    15   ar
    40    10     1    1
    41     9     4   ar
    42    37    32   ar
    43    42    36    1
    44    24    25    1
    45    24    26    1
    46    13    14    1
    47    42    43    1
@<TRIPOS>MOLECULE
*****
 43 47 0 0 0
SMALL
GASTEIGER

@<TRIPOS>ATOM
      1 C         142.0018  141.2679  161.9546 C.3     1  UNL1        0.0765
      2 C         143.3917  141.8301  161.9988 C.3     1  UNL1        0.0246
      3 C         144.0170  142.3832  160.7526 C.3     1  UNL1        0.0277
      4 C         143.2523  142.3741  159.4621 C.ar    1  UNL1       -0.0258
      5 C         143.8777  142.9272  158.2159 C.ar    1  UNL1       -0.0014
      6 C         143.1130  142.9181  156.9254 C.ar    1  UNL1        0.0371
      7 C         141.7230  142.3559  156.8813 C.ar    1  UNL1        0.1450
      8 C         141.0977  141.8028  158.1275 C.ar    1  UNL1        0.0330
      9 C         141.8624  141.8119  159.4179 C.ar    1  UNL1       -0.0215
     10 C         141.2371  141.2589  160.6642 C.3     1  UNL1        0.0457
     11 C         141.0002  141.6357  164.3235 C.2     1  UNL1        0.2458
     12 O         141.2493  143.1097  164.1999 O.2     1  UNL1       -0.2701
     13 N         141.3765  140.7148  163.2008 N.am    1  UNL1       -0.3021
     14 H         141.2130  139.7474  163.2819 H       1  UNL1        0.1497
     15 C         139.9580  141.2214  168.1303 C.ar    1  UNL1       -0.0097
     16 C         140.5833  141.7746  166.8842 C.ar    1  UNL1        0.0015
     17 C         140.3749  141.0826  165.5697 C.ar    1  UNL1        0.0530
     18 C         139.5411  139.8375  165.5015 C.ar    1  UNL1        0.0083
     19 C         138.9158  139.2844  166.7477 C.ar    1  UNL1        0.0713
     20 C         139.1242  139.9764  168.0621 C.ar    1  UNL1        0.0008
     21 C         139.7323  140.6725  170.1670 C.3     1  UNL1        0.0201
     22 C         140.1664  141.9134  169.4448 C.3     1  UNL1        0.0582
     23 C         140.6005  143.1544  168.7227 C.3     1  UNL1        0.0201
     24 N         140.3748  142.6054  170.7592 N.3     1  UNL1       -0.3200
     25 H         140.1437  141.9666  171.5201 H       1  UNL1        0.1191
     26 H         139.7725  143.4270  170.8102 H       1  UNL1        0.1191
     27 C         138.0821  138.0393  166.6794 C.3     1  UNL1        0.4186
     28 F         137.2483  136.7943  166.6112 F       1  UNL1       -0.1659
     29 F         138.9318  137.5321  165.5522 F       1  UNL1       -0.1659
     30 F         137.2323  138.5466  167.8067 F       1  UNL1       -0.1659
     31 O         140.9583  142.3468  155.5909 O.3     1  UNL1       -0.4537
     32 C         139.5989  142.9770  155.5202 C.ar    1  UNL1        0.1455
     33 C         138.3704  142.1279  155.6605 C.ar    1  UNL1        0.0579
     34 C         137.0110  142.7582  155.5898 C.ar    1  UNL1        0.1034
     35 N         136.8802  144.2375  155.3788 N.ar    1  UNL1       -0.2291
     36 C         138.1088  145.0866  155.2385 C.ar    1  UNL1        0.1330
     37 C         139.4681  144.4564  155.3092 C.ar    1  UNL1        0.0445
     38 C         140.6967  145.3055  155.1689 C.3     1  UNL1        0.0419
     39 C         140.5659  146.7848  154.9579 C.3     1  UNL1        0.0903
     40 C         139.2065  147.4150  154.8872 C.2     1  UNL1        0.2275
     41 O         139.0757  148.8943  154.6762 O.2     1  UNL1       -0.2747
     42 N         137.9780  146.5659  155.0275 N.am    1  UNL1       -0.2695
     43 H         137.0858  146.9795  154.9811 H       1  UNL1        0.1562
@<TRIPOS>BOND
     1    21    22    1
     2    22    23    1
     3    22    24    1
     4    22    15    1
     5    15    16   ar
     6    16    17   ar
     7    17    11    1
     8    11    12    2
     9    11    13   am
    10     1    13    1
    11     1     2    1
    12     2     3    1
    13     3     4    1
    14     4     5   ar
    15     5     6   ar
    16     6     7   ar
    17     7    31    1
    18    31    32    1
    19    32    33   ar
    20    33    34   ar
    21    34    35   ar
    22    35    36   ar
    23    36    37   ar
    24    37    38    1
    25    38    39    1
    26    39    40    1
    27    40    41    2
    28    40    42   am
    29     7     8   ar
    30     8     9   ar
    31     9    10    1
    32    17    18   ar
    33    18    19   ar
    34    19    27    1
    35    27    28    1
    36    27    29    1
    37    27    30    1
    38    19    20   ar
    39    20    15   ar
    40    10     1    1
    41     9     4   ar
    42    37    32   ar
    43    42    36    1
    44    24    25    1
    45    24    26    1
    46    13    14    1
    47    42    43    1
