@<TRIPOS>MOLECULE
*****
 33 36 0 0 0
SMALL
GASTEIGER

@<TRIPOS>ATOM
      1 C         143.3618  141.4201  161.0703 C.ar    1  UNL1        0.2338
      2 N         142.7942  140.1466  161.6234 N.ar    1  UNL1       -0.1783
      3 C         142.7533  138.9120  160.7726 C.ar    1  UNL1        0.2237
      4 N         143.2800  138.9509  159.3685 N.ar    1  UNL1       -0.2067
      5 C         143.8476  140.2244  158.8155 C.ar    1  UNL1        0.1181
      6 S         144.4358  140.5635  157.4780 S.2     1  UNL1       -0.0673
      7 C         144.8402  142.0078  157.5022 C.ar    1  UNL1        0.0371
      8 C         144.5019  142.5613  158.8547 C.ar    1  UNL1        0.0137
      9 C         143.8885  141.4591  159.6664 C.ar    1  UNL1        0.0780
     10 N         142.1857  137.6384  161.3257 N.pl3   1  UNL1       -0.2807
     11 H         142.4470  136.7729  160.9359 H       1  UNL1        0.1551
     12 C         141.2201  137.6835  162.4727 C.ar    1  UNL1        0.0783
     13 C         141.7294  137.6571  163.8833 C.ar    1  UNL1        0.0177
     14 C         140.7638  137.7022  165.0303 C.ar    1  UNL1        0.0117
     15 C         139.2889  137.7736  164.7666 C.ar    1  UNL1        0.0708
     16 C         138.7796  137.8000  163.3560 C.ar    1  UNL1        0.0412
     17 C         139.7452  137.7549  162.2090 C.ar    1  UNL1        0.1541
     18 F         139.2359  137.7813  160.7984 F       1  UNL1       -0.2028
     19 C         138.3232  137.8187  165.9136 C.1     1  UNL1        0.1005
     20 N         137.3575  137.8638  167.0604 N.1     1  UNL1       -0.1908
     21 O         143.4026  142.6548  161.9212 O.3     1  UNL1       -0.4366
     22 C         145.4724  141.9035  163.9588 C.3     1  UNL1        0.0342
     23 C         144.0676  142.2022  164.3916 C.ar    1  UNL1        0.0124
     24 C         143.6977  142.1252  165.8432 C.ar    1  UNL1       -0.0012
     25 C         142.2928  142.4239  166.2761 C.ar    1  UNL1        0.0003
     26 C         141.2580  142.7995  165.2573 C.ar    1  UNL1       -0.0012
     27 C         141.6279  142.8765  163.8056 C.ar    1  UNL1        0.0124
     28 C         140.5931  143.2521  162.7869 C.3     1  UNL1        0.0342
     29 C         143.0327  142.5778  163.3728 C.ar    1  UNL1        0.1391
     30 C         141.9229  142.3469  167.7278 C.2     1  UNL1        0.0109
     31 C         140.6068  142.8929  168.1963 C.2     1  UNL1        0.0780
     32 C         140.2369  142.8159  169.6480 C.1     1  UNL1        0.1011
     33 N         139.8671  142.7389  171.0996 N.1     1  UNL1       -0.1908
@<TRIPOS>BOND
     1    22    23    1
     2    23    24   ar
     3    24    25   ar
     4    25    30    1
     5    30    31    2
     6    31    32    1
     7    32    33    3
     8    25    26   ar
     9    26    27   ar
    10    27    28    1
    11    27    29   ar
    12    29    21    1
    13    21     1    1
    14     1     2   ar
    15     2     3   ar
    16     3    10    1
    17    10    12    1
    18    12    13   ar
    19    13    14   ar
    20    14    15   ar
    21    15    19    1
    22    19    20    3
    23    15    16   ar
    24    16    17   ar
    25    17    18    1
    26     3     4   ar
    27     4     5   ar
    28     5     6   ar
    29     6     7   ar
    30     7     8   ar
    31     8     9   ar
    32    29    23   ar
    33     9     1   ar
    34    17    12   ar
    35     9     5   ar
    36    10    11    1
@<TRIPOS>MOLECULE
*****
 33 36 0 0 0
SMALL
GASTEIGER

@<TRIPOS>ATOM
      1 C         143.3323  141.4428  161.0768 C.ar    1  UNL1        0.2338
      2 N         142.7812  140.1627  161.6314 N.ar    1  UNL1       -0.1783
      3 C         142.7601  138.9256  160.7835 C.ar    1  UNL1        0.2237
      4 N         143.2901  138.9686  159.3808 N.ar    1  UNL1       -0.2067
      5 C         143.8411  140.2487  158.8262 C.ar    1  UNL1        0.1181
      6 S         144.4282  140.5929  157.4895 S.2     1  UNL1       -0.0673
      7 C         144.8121  142.0427  157.5114 C.ar    1  UNL1        0.0371
      8 C         144.4624  142.5946  158.8616 C.ar    1  UNL1        0.0137
      9 C         143.8622  141.4858  159.6743 C.ar    1  UNL1        0.0780
     10 N         142.2090  137.6455  161.3382 N.pl3   1  UNL1       -0.2807
     11 H         142.4855  136.7827  160.9529 H       1  UNL1        0.1551
     12 C         141.2366  137.6798  162.4798 C.ar    1  UNL1        0.0783
     13 C         141.7372  137.6325  163.8930 C.ar    1  UNL1        0.0177
     14 C         140.7648  137.6669  165.0346 C.ar    1  UNL1        0.0117
     15 C         139.2919  137.7486  164.7631 C.ar    1  UNL1        0.0708
     16 C         138.7913  137.7960  163.3499 C.ar    1  UNL1        0.0412
     17 C         139.7637  137.7616  162.2082 C.ar    1  UNL1        0.1541
     18 F         139.2631  137.8089  160.7950 F       1  UNL1       -0.2028
     19 C         138.3194  137.7830  165.9047 C.1     1  UNL1        0.1005
     20 N         137.3470  137.8174  167.0461 N.1     1  UNL1       -0.1908
     21 O         143.3534  142.6799  161.9248 O.3     1  UNL1       -0.4366
     22 C         140.5468  143.2651  162.8085 C.3     1  UNL1        0.0342
     23 C         141.5892  142.8916  163.8203 C.ar    1  UNL1        0.0124
     24 C         141.2284  142.8107  165.2740 C.ar    1  UNL1       -0.0012
     25 C         142.2709  142.4372  166.2859 C.ar    1  UNL1        0.0003
     26 C         143.6741  142.1447  165.8441 C.ar    1  UNL1       -0.0012
     27 C         144.0350  142.2256  164.3904 C.ar    1  UNL1        0.0124
     28 C         145.4382  141.9330  163.9485 C.3     1  UNL1        0.0342
     29 C         142.9926  142.5990  163.3785 C.ar    1  UNL1        0.1391
     30 C         141.9100  142.3563  167.7397 C.2     1  UNL1        0.0109
     31 C         140.5982  142.9039  168.2183 C.2     1  UNL1        0.0780
     32 C         140.2373  142.8230  169.6721 C.1     1  UNL1        0.1011
     33 N         139.8764  142.7422  171.1257 N.1     1  UNL1       -0.1908
@<TRIPOS>BOND
     1    22    23    1
     2    23    24   ar
     3    24    25   ar
     4    25    30    1
     5    30    31    2
     6    31    32    1
     7    32    33    3
     8    25    26   ar
     9    26    27   ar
    10    27    28    1
    11    27    29   ar
    12    29    21    1
    13    21     1    1
    14     1     2   ar
    15     2     3   ar
    16     3    10    1
    17    10    12    1
    18    12    13   ar
    19    13    14   ar
    20    14    15   ar
    21    15    19    1
    22    19    20    3
    23    15    16   ar
    24    16    17   ar
    25    17    18    1
    26     3     4   ar
    27     4     5   ar
    28     5     6   ar
    29     6     7   ar
    30     7     8   ar
    31     8     9   ar
    32    29    23   ar
    33     9     1   ar
    34    17    12   ar
    35     9     5   ar
    36    10    11    1
@<TRIPOS>MOLECULE
*****
 33 36 0 0 0
SMALL
GASTEIGER

@<TRIPOS>ATOM
      1 C         141.5219  138.5849  161.1445 C.ar    1  UNL1        0.2338
      2 N         140.2505  139.1949  161.6559 N.ar    1  UNL1       -0.1783
      3 C         139.1517  139.5511  160.6991 C.ar    1  UNL1        0.2237
      4 N         139.3241  139.2972  159.2307 N.ar    1  UNL1       -0.2067
      5 C         140.5955  138.6871  158.7194 C.ar    1  UNL1        0.1181
      6 S         141.0487  138.3228  157.3367 S.2     1  UNL1       -0.0673
      7 C         142.4277  137.7415  157.4391 C.ar    1  UNL1        0.0371
      8 C         142.8267  137.7465  158.8850 C.ar    1  UNL1        0.0137
      9 C         141.6943  138.3310  159.6763 C.ar    1  UNL1        0.0780
     10 N         137.8803  140.1611  161.2104 N.pl3   1  UNL1       -0.2807
     11 H         137.0117  139.8464  160.8703 H       1  UNL1        0.1551
     12 C         137.9323  141.2507  162.2401 C.ar    1  UNL1        0.0783
     13 C         137.8841  142.6881  161.8142 C.ar    1  UNL1        0.0177
     14 C         137.9362  143.7776  162.8438 C.ar    1  UNL1        0.0117
     15 C         138.0365  143.4297  164.2995 C.ar    1  UNL1        0.0708
     16 C         138.0847  141.9923  164.7254 C.ar    1  UNL1        0.0412
     17 C         138.0327  140.9028  163.6957 C.ar    1  UNL1        0.1541
     18 F         138.0809  139.4653  164.1217 F       1  UNL1       -0.2028
     19 C         138.0886  144.5192  165.3292 C.1     1  UNL1        0.1005
     20 N         138.1407  145.6086  166.3589 N.1     1  UNL1       -0.1908
     21 O         142.6207  138.2287  162.1015 O.3     1  UNL1       -0.4366
     22 C         141.0401  136.9447  164.3045 C.3     1  UNL1        0.0342
     23 C         141.8462  138.1791  164.5809 C.ar    1  UNL1        0.0124
     24 C         141.8621  138.7715  165.9589 C.ar    1  UNL1       -0.0012
     25 C         142.6683  140.0060  166.2353 C.ar    1  UNL1        0.0003
     26 C         143.4585  140.6479  165.1339 C.ar    1  UNL1       -0.0012
     27 C         143.4427  140.0555  163.7559 C.ar    1  UNL1        0.0124
     28 C         144.2329  140.6975  162.6544 C.3     1  UNL1        0.0342
     29 C         142.6366  138.8212  163.4794 C.ar    1  UNL1        0.1391
     30 C         142.6841  140.5984  167.6134 C.2     1  UNL1        0.0109
     31 C         142.7849  142.0845  167.7897 C.2     1  UNL1        0.0780
     32 C         142.8008  142.6769  169.1678 C.1     1  UNL1        0.1011
     33 N         142.8165  143.2693  170.5457 N.1     1  UNL1       -0.1908
@<TRIPOS>BOND
     1    22    23    1
     2    23    24   ar
     3    24    25   ar
     4    25    30    1
     5    30    31    2
     6    31    32    1
     7    32    33    3
     8    25    26   ar
     9    26    27   ar
    10    27    28    1
    11    27    29   ar
    12    29    21    1
    13    21     1    1
    14     1     2   ar
    15     2     3   ar
    16     3    10    1
    17    10    12    1
    18    12    13   ar
    19    13    14   ar
    20    14    15   ar
    21    15    19    1
    22    19    20    3
    23    15    16   ar
    24    16    17   ar
    25    17    18    1
    26     3     4   ar
    27     4     5   ar
    28     5     6   ar
    29     6     7   ar
    30     7     8   ar
    31     8     9   ar
    32    29    23   ar
    33     9     1   ar
    34    17    12   ar
    35     9     5   ar
    36    10    11    1
@<TRIPOS>MOLECULE
*****
 33 36 0 0 0
SMALL
GASTEIGER

@<TRIPOS>ATOM
      1 C         140.4073  142.0617  166.9628 C.ar    1  UNL1        0.2338
      2 N         139.7317  141.0093  166.1345 N.ar    1  UNL1       -0.1783
      3 C         139.1481  139.7954  166.7945 C.ar    1  UNL1        0.2237
      4 N         139.2401  139.6337  168.2830 N.ar    1  UNL1       -0.2067
      5 C         139.9156  140.6861  169.1114 C.ar    1  UNL1        0.1181
      6 S         140.1567  140.8000  170.5875 S.2     1  UNL1       -0.0673
      7 C         140.8893  142.0844  170.8397 C.ar    1  UNL1        0.0371
      8 C         141.1010  142.7643  169.5194 C.ar    1  UNL1        0.0137
      9 C         140.4992  141.9001  168.4513 C.ar    1  UNL1        0.0780
     10 N         138.4726  138.7430  165.9661 N.pl3   1  UNL1       -0.2807
     11 H         137.8593  138.1006  166.3910 H       1  UNL1        0.1551
     12 C         138.7313  138.6695  164.4904 C.ar    1  UNL1        0.0783
     13 C         137.9399  139.5256  163.5466 C.ar    1  UNL1        0.0177
     14 C         138.1987  139.4520  162.0709 C.ar    1  UNL1        0.0117
     15 C         139.2488  138.5224  161.5391 C.ar    1  UNL1        0.0708
     16 C         140.0402  137.6663  162.4828 C.ar    1  UNL1        0.0412
     17 C         139.7815  137.7398  163.9585 C.ar    1  UNL1        0.1541
     18 F         140.5729  136.8837  164.9023 F       1  UNL1       -0.2028
     19 C         139.5076  138.4488  160.0633 C.1     1  UNL1        0.1005
     20 N         139.7664  138.3752  158.5878 N.1     1  UNL1       -0.1908
     21 O         140.9909  143.2756  166.3028 O.3     1  UNL1       -0.4366
     22 C         138.6253  144.9088  165.4442 C.3     1  UNL1        0.0342
     23 C         139.5607  144.3453  164.4159 C.ar    1  UNL1        0.0124
     24 C         139.3134  144.5984  162.9582 C.ar    1  UNL1       -0.0012
     25 C         140.2488  144.0348  161.9298 C.ar    1  UNL1        0.0003
     26 C         141.4315  143.2183  162.3591 C.ar    1  UNL1       -0.0012
     27 C         141.6789  142.9652  163.8168 C.ar    1  UNL1        0.0124
     28 C         142.8616  142.1487  164.2460 C.3     1  UNL1        0.0342
     29 C         140.7435  143.5287  164.8451 C.ar    1  UNL1        0.1391
     30 C         140.0014  144.2879  160.4721 C.2     1  UNL1        0.0109
     31 C         140.6375  145.4667  159.7971 C.2     1  UNL1        0.0780
     32 C         140.3901  145.7198  158.3394 C.1     1  UNL1        0.1011
     33 N         140.1427  145.9729  156.8817 N.1     1  UNL1       -0.1908
@<TRIPOS>BOND
     1    22    23    1
     2    23    24   ar
     3    24    25   ar
     4    25    30    1
     5    30    31    2
     6    31    32    1
     7    32    33    3
     8    25    26   ar
     9    26    27   ar
    10    27    28    1
    11    27    29   ar
    12    29    21    1
    13    21     1    1
    14     1     2   ar
    15     2     3   ar
    16     3    10    1
    17    10    12    1
    18    12    13   ar
    19    13    14   ar
    20    14    15   ar
    21    15    19    1
    22    19    20    3
    23    15    16   ar
    24    16    17   ar
    25    17    18    1
    26     3     4   ar
    27     4     5   ar
    28     5     6   ar
    29     6     7   ar
    30     7     8   ar
    31     8     9   ar
    32    29    23   ar
    33     9     1   ar
    34    17    12   ar
    35     9     5   ar
    36    10    11    1
@<TRIPOS>MOLECULE
*****
 33 36 0 0 0
SMALL
GASTEIGER

@<TRIPOS>ATOM
      1 C         140.2057  139.8775  167.0350 C.ar    1  UNL1        0.2338
      2 N         141.3077  139.3979  166.1374 N.ar    1  UNL1       -0.1783
      3 C         142.6871  139.1901  166.6887 C.ar    1  UNL1        0.2237
      4 N         142.9646  139.4619  168.1376 N.ar    1  UNL1       -0.2067
      5 C         141.8626  139.9415  169.0351 C.ar    1  UNL1        0.1181
      6 S         141.8362  140.2898  170.4938 S.2     1  UNL1       -0.0673
      7 C         140.4404  140.7129  170.8441 C.ar    1  UNL1        0.0371
      8 C         139.6042  140.6261  169.6018 C.ar    1  UNL1        0.0137
      9 C         140.4832  140.1493  168.4838 C.ar    1  UNL1        0.0780
     10 N         143.7891  138.7105  165.7910 N.pl3   1  UNL1       -0.2807
     11 H         144.5048  138.1390  166.1524 H       1  UNL1        0.1551
     12 C         143.8007  139.1015  164.3429 C.ar    1  UNL1        0.0783
     13 C         144.7224  140.1844  163.8658 C.ar    1  UNL1        0.0177
     14 C         144.7340  140.5754  162.4177 C.ar    1  UNL1        0.0117
     15 C         143.8238  139.8835  161.4467 C.ar    1  UNL1        0.0708
     16 C         142.9021  138.8006  161.9239 C.ar    1  UNL1        0.0412
     17 C         142.8905  138.4095  163.3720 C.ar    1  UNL1        0.1541
     18 F         141.9688  137.3266  163.8491 F       1  UNL1       -0.2028
     19 C         143.8353  140.2745  159.9986 C.1     1  UNL1        0.1005
     20 N         143.8469  140.6654  158.5506 N.1     1  UNL1       -0.1908
     21 O         138.8262  140.0853  166.4837 O.3     1  UNL1       -0.4366
     22 C         138.3272  142.5308  164.8191 C.3     1  UNL1        0.0342
     23 C         138.3300  141.1747  164.1779 C.ar    1  UNL1        0.0124
     24 C         138.0832  141.0414  162.7043 C.ar    1  UNL1       -0.0012
     25 C         138.0860  139.6853  162.0631 C.ar    1  UNL1        0.0003
     26 C         138.3355  138.4627  162.8953 C.ar    1  UNL1       -0.0012
     27 C         138.5822  138.5959  164.3689 C.ar    1  UNL1        0.0124
     28 C         138.8317  137.3733  165.2012 C.3     1  UNL1        0.0342
     29 C         138.5795  139.9519  165.0101 C.ar    1  UNL1        0.1391
     30 C         137.8392  139.5520  160.5895 C.2     1  UNL1        0.0109
     31 C         138.1989  140.6764  159.6642 C.2     1  UNL1        0.0780
     32 C         137.9522  140.5432  158.1905 C.1     1  UNL1        0.1011
     33 N         137.7054  140.4100  156.7170 N.1     1  UNL1       -0.1908
@<TRIPOS>BOND
     1    22    23    1
     2    23    24   ar
     3    24    25   ar
     4    25    30    1
     5    30    31    2
     6    31    32    1
     7    32    33    3
     8    25    26   ar
     9    26    27   ar
    10    27    28    1
    11    27    29   ar
    12    29    21    1
    13    21     1    1
    14     1     2   ar
    15     2     3   ar
    16     3    10    1
    17    10    12    1
    18    12    13   ar
    19    13    14   ar
    20    14    15   ar
    21    15    19    1
    22    19    20    3
    23    15    16   ar
    24    16    17   ar
    25    17    18    1
    26     3     4   ar
    27     4     5   ar
    28     5     6   ar
    29     6     7   ar
    30     7     8   ar
    31     8     9   ar
    32    29    23   ar
    33     9     1   ar
    34    17    12   ar
    35     9     5   ar
    36    10    11    1
@<TRIPOS>MOLECULE
*****
 33 36 0 0 0
SMALL
GASTEIGER

@<TRIPOS>ATOM
      1 C         141.7966  140.7221  167.3580 C.ar    1  UNL1        0.2338
      2 N         140.6556  140.2535  166.5044 N.ar    1  UNL1       -0.1783
      3 C         139.3716  139.8148  167.1436 C.ar    1  UNL1        0.2237
      4 N         139.2284  139.8447  168.6366 N.ar    1  UNL1       -0.2067
      5 C         140.3694  140.3132  169.4901 C.ar    1  UNL1        0.1181
      6 S         140.5204  140.4513  170.9761 S.2     1  UNL1       -0.0673
      7 C         141.8979  140.9754  171.2552 C.ar    1  UNL1        0.0371
      8 C         142.5982  141.1612  169.9417 C.ar    1  UNL1        0.0137
      9 C         141.6535  140.7519  168.8509 C.ar    1  UNL1        0.0780
     10 N         138.2306  139.3462  166.2900 N.pl3   1  UNL1       -0.2807
     11 H         137.3770  139.0885  166.7074 H       1  UNL1        0.1551
     12 C         138.3901  139.2704  164.8004 C.ar    1  UNL1        0.0783
     13 C         137.8768  140.3818  163.9336 C.ar    1  UNL1        0.0177
     14 C         138.0364  140.3059  162.4440 C.ar    1  UNL1        0.0117
     15 C         138.7092  139.1187  161.8213 C.ar    1  UNL1        0.0708
     16 C         139.2225  138.0073  162.6881 C.ar    1  UNL1        0.0412
     17 C         139.0629  138.0832  164.1777 C.ar    1  UNL1        0.1541
     18 F         139.5762  136.9718  165.0445 F       1  UNL1       -0.2028
     19 C         138.8688  139.0428  160.3317 C.1     1  UNL1        0.1005
     20 N         139.0283  138.9668  158.8422 N.1     1  UNL1       -0.1908
     21 O         143.0807  141.1607  166.7187 O.3     1  UNL1       -0.4366
     22 C         143.9083  138.4154  165.8363 C.3     1  UNL1        0.0342
     23 C         143.7421  139.5102  164.8245 C.ar    1  UNL1        0.0124
     24 C         143.9898  139.2324  163.3714 C.ar    1  UNL1       -0.0012
     25 C         143.8236  140.3272  162.3595 C.ar    1  UNL1        0.0003
     26 C         143.4098  141.6997  162.8007 C.ar    1  UNL1       -0.0012
     27 C         143.1621  141.9777  164.2538 C.ar    1  UNL1        0.0124
     28 C         142.7484  143.3502  164.6950 C.3     1  UNL1        0.0342
     29 C         143.3283  140.8829  165.2656 C.ar    1  UNL1        0.1391
     30 C         144.0712  140.0493  160.9063 C.2     1  UNL1        0.0109
     31 C         143.0133  139.3804  160.0798 C.2     1  UNL1        0.0780
     32 C         143.2610  139.1024  158.6267 C.1     1  UNL1        0.1011
     33 N         143.5086  138.8246  157.1736 N.1     1  UNL1       -0.1908
@<TRIPOS>BOND
     1    22    23    1
     2    23    24   ar
     3    24    25   ar
     4    25    30    1
     5    30    31    2
     6    31    32    1
     7    32    33    3
     8    25    26   ar
     9    26    27   ar
    10    27    28    1
    11    27    29   ar
    12    29    21    1
    13    21     1    1
    14     1     2   ar
    15     2     3   ar
    16     3    10    1
    17    10    12    1
    18    12    13   ar
    19    13    14   ar
    20    14    15   ar
    21    15    19    1
    22    19    20    3
    23    15    16   ar
    24    16    17   ar
    25    17    18    1
    26     3     4   ar
    27     4     5   ar
    28     5     6   ar
    29     6     7   ar
    30     7     8   ar
    31     8     9   ar
    32    29    23   ar
    33     9     1   ar
    34    17    12   ar
    35     9     5   ar
    36    10    11    1
@<TRIPOS>MOLECULE
*****
 33 36 0 0 0
SMALL
GASTEIGER

@<TRIPOS>ATOM
      1 C         141.5455  138.4601  161.2073 C.ar    1  UNL1        0.2338
      2 N         140.2652  139.0768  161.6873 N.ar    1  UNL1       -0.1783
      3 C         139.1884  139.4304  160.7048 C.ar    1  UNL1        0.2237
      4 N         139.3919  139.1672  159.2421 N.ar    1  UNL1       -0.2067
      5 C         140.6721  138.5505  158.7621 C.ar    1  UNL1        0.1181
      6 S         141.1541  138.1766  157.3917 S.2     1  UNL1       -0.0673
      7 C         142.5288  137.5920  157.5273 C.ar    1  UNL1        0.0371
      8 C         142.8964  137.6045  158.9815 C.ar    1  UNL1        0.0137
      9 C         141.7490  138.1969  159.7446 C.ar    1  UNL1        0.0780
     10 N         137.9081  140.0471  161.1850 N.pl3   1  UNL1       -0.2807
     11 H         137.0457  139.7283  160.8329 H       1  UNL1        0.1551
     12 C         137.9417  141.1497  162.2015 C.ar    1  UNL1        0.0783
     13 C         137.9099  140.8219  163.6648 C.ar    1  UNL1        0.0177
     14 C         137.9435  141.9244  164.6813 C.ar    1  UNL1        0.0117
     15 C         138.0088  143.3548  164.2345 C.ar    1  UNL1        0.0708
     16 C         138.0406  143.6826  162.7711 C.ar    1  UNL1        0.0412
     17 C         138.0070  142.5801  161.7546 C.ar    1  UNL1        0.1541
     18 F         138.0388  142.9079  160.2912 F       1  UNL1       -0.2028
     19 C         138.0424  144.4574  165.2509 C.1     1  UNL1        0.1005
     20 N         138.0760  145.5600  166.2673 N.1     1  UNL1       -0.1908
     21 O         142.6223  138.1065  162.1898 O.3     1  UNL1       -0.4366
     22 C         144.3471  140.5391  162.5183 C.3     1  UNL1        0.0342
     23 C         143.5500  140.0225  163.6792 C.ar    1  UNL1        0.0124
     24 C         143.6153  140.7222  165.0044 C.ar    1  UNL1       -0.0012
     25 C         142.8182  140.2056  166.1654 C.ar    1  UNL1        0.0003
     26 C         141.9558  138.9893  166.0012 C.ar    1  UNL1       -0.0012
     27 C         141.8905  138.2896  164.6760 C.ar    1  UNL1        0.0124
     28 C         141.0282  137.0734  164.5117 C.3     1  UNL1        0.0342
     29 C         142.6876  138.8062  163.5150 C.ar    1  UNL1        0.1391
     30 C         142.8835  140.9053  167.4907 C.2     1  UNL1        0.0109
     31 C         141.8755  141.9627  167.8309 C.2     1  UNL1        0.0780
     32 C         141.9409  142.6625  169.1561 C.1     1  UNL1        0.1011
     33 N         142.0062  143.3622  170.4813 N.1     1  UNL1       -0.1908
@<TRIPOS>BOND
     1    22    23    1
     2    23    24   ar
     3    24    25   ar
     4    25    30    1
     5    30    31    2
     6    31    32    1
     7    32    33    3
     8    25    26   ar
     9    26    27   ar
    10    27    28    1
    11    27    29   ar
    12    29    21    1
    13    21     1    1
    14     1     2   ar
    15     2     3   ar
    16     3    10    1
    17    10    12    1
    18    12    13   ar
    19    13    14   ar
    20    14    15   ar
    21    15    19    1
    22    19    20    3
    23    15    16   ar
    24    16    17   ar
    25    17    18    1
    26     3     4   ar
    27     4     5   ar
    28     5     6   ar
    29     6     7   ar
    30     7     8   ar
    31     8     9   ar
    32    29    23   ar
    33     9     1   ar
    34    17    12   ar
    35     9     5   ar
    36    10    11    1
@<TRIPOS>MOLECULE
*****
 33 36 0 0 0
SMALL
GASTEIGER

@<TRIPOS>ATOM
      1 C         140.6408  141.9750  166.4375 C.ar    1  UNL1        0.2338
      2 N         140.3216  140.8665  165.4787 N.ar    1  UNL1       -0.1783
      3 C         139.6592  139.6148  165.9729 C.ar    1  UNL1        0.2237
      4 N         139.3160  139.4714  167.4261 N.ar    1  UNL1       -0.2067
      5 C         139.6352  140.5799  168.3850 C.ar    1  UNL1        0.1181
      6 S         139.4174  140.7230  169.8621 S.2     1  UNL1       -0.0673
      7 C         139.9451  142.0632  170.2808 C.ar    1  UNL1        0.0371
      8 C         140.4892  142.7484  169.0624 C.ar    1  UNL1        0.0137
      9 C         140.2976  141.8316  167.8907 C.ar    1  UNL1        0.0780
     10 N         139.3399  138.5063  165.0140 N.pl3   1  UNL1       -0.2807
     11 H         138.6425  137.8482  165.2369 H       1  UNL1        0.1551
     12 C         140.0833  138.4006  163.7154 C.ar    1  UNL1        0.0783
     13 C         139.3913  138.7301  162.4261 C.ar    1  UNL1        0.0177
     14 C         140.1347  138.6244  161.1275 C.ar    1  UNL1        0.0117
     15 C         141.5702  138.1892  161.1184 C.ar    1  UNL1        0.0708
     16 C         142.2622  137.8597  162.4078 C.ar    1  UNL1        0.0412
     17 C         141.5188  137.9654  163.7063 C.ar    1  UNL1        0.1541
     18 F         142.2108  137.6359  164.9957 F       1  UNL1       -0.2028
     19 C         142.3137  138.0834  159.8199 C.1     1  UNL1        0.1005
     20 N         143.0572  137.9777  158.5215 N.1     1  UNL1       -0.1908
     21 O         141.3032  143.2267  165.9432 O.3     1  UNL1       -0.4366
     22 C         143.1849  142.5980  163.6928 C.3     1  UNL1        0.0342
     23 C         141.9554  143.4179  163.4356 C.ar    1  UNL1        0.0124
     24 C         141.6668  143.9235  162.0532 C.ar    1  UNL1       -0.0012
     25 C         140.4373  144.7435  161.7960 C.ar    1  UNL1        0.0003
     26 C         139.4965  145.0579  162.9211 C.ar    1  UNL1       -0.0012
     27 C         139.7851  144.5523  164.3036 C.ar    1  UNL1        0.0124
     28 C         138.8444  144.8666  165.4288 C.3     1  UNL1        0.0342
     29 C         141.0146  143.7323  164.5608 C.ar    1  UNL1        0.1391
     30 C         140.1487  145.2491  160.4135 C.2     1  UNL1        0.0109
     31 C         141.2255  145.2339  159.3695 C.2     1  UNL1        0.0780
     32 C         140.9369  145.7395  157.9870 C.1     1  UNL1        0.1011
     33 N         140.6484  146.2451  156.6046 N.1     1  UNL1       -0.1908
@<TRIPOS>BOND
     1    22    23    1
     2    23    24   ar
     3    24    25   ar
     4    25    30    1
     5    30    31    2
     6    31    32    1
     7    32    33    3
     8    25    26   ar
     9    26    27   ar
    10    27    28    1
    11    27    29   ar
    12    29    21    1
    13    21     1    1
    14     1     2   ar
    15     2     3   ar
    16     3    10    1
    17    10    12    1
    18    12    13   ar
    19    13    14   ar
    20    14    15   ar
    21    15    19    1
    22    19    20    3
    23    15    16   ar
    24    16    17   ar
    25    17    18    1
    26     3     4   ar
    27     4     5   ar
    28     5     6   ar
    29     6     7   ar
    30     7     8   ar
    31     8     9   ar
    32    29    23   ar
    33     9     1   ar
    34    17    12   ar
    35     9     5   ar
    36    10    11    1
@<TRIPOS>MOLECULE
*****
 33 36 0 0 0
SMALL
GASTEIGER

@<TRIPOS>ATOM
      1 C         141.1640  140.1412  166.9302 C.ar    1  UNL1        0.2338
      2 N         140.4704  141.2599  166.2108 N.ar    1  UNL1       -0.1783
      3 C         140.3565  142.6094  166.8554 C.ar    1  UNL1        0.2237
      4 N         140.9361  142.8405  168.2195 N.ar    1  UNL1       -0.2067
      5 C         141.6296  141.7218  168.9390 C.ar    1  UNL1        0.1181
      6 S         142.2935  141.6515  170.2822 S.2     1  UNL1       -0.0673
      7 C         142.8178  140.2584  170.4677 C.ar    1  UNL1        0.0371
      8 C         142.4779  139.4677  169.2391 C.ar    1  UNL1        0.0137
      9 C         141.7436  140.3722  168.2943 C.ar    1  UNL1        0.0780
     10 N         139.6628  143.7281  166.1359 N.pl3   1  UNL1       -0.2807
     11 H         138.9470  144.2332  166.5850 H       1  UNL1        0.1551
     12 C         140.0599  144.0772  164.7322 C.ar    1  UNL1        0.0783
     13 C         141.5093  144.1007  164.3466 C.ar    1  UNL1        0.0177
     14 C         141.9064  144.4498  162.9429 C.ar    1  UNL1        0.0117
     15 C         140.8541  144.7754  161.9247 C.ar    1  UNL1        0.0708
     16 C         139.4048  144.7519  162.3103 C.ar    1  UNL1        0.0412
     17 C         139.0077  144.4028  163.7141 C.ar    1  UNL1        0.1541
     18 F         137.5583  144.3794  164.0997 F       1  UNL1       -0.2028
     19 C         141.2512  145.1245  160.5209 C.1     1  UNL1        0.1005
     20 N         141.6481  145.4737  159.1173 N.1     1  UNL1       -0.1908
     21 O         141.2780  138.7916  166.2856 O.3     1  UNL1       -0.4366
     22 C         143.2077  139.2229  164.0293 C.3     1  UNL1        0.0342
     23 C         141.7942  138.8131  163.7394 C.ar    1  UNL1        0.0124
     24 C         141.3454  138.6190  162.3213 C.ar    1  UNL1       -0.0012
     25 C         139.9319  138.2093  162.0313 C.ar    1  UNL1        0.0003
     26 C         138.9671  137.9937  163.1594 C.ar    1  UNL1       -0.0012
     27 C         139.4158  138.1878  164.5775 C.ar    1  UNL1        0.0124
     28 C         138.4510  137.9722  165.7056 C.3     1  UNL1        0.0342
     29 C         140.8293  138.5975  164.8675 C.ar    1  UNL1        0.1391
     30 C         139.4832  138.0152  160.6132 C.2     1  UNL1        0.0109
     31 C         140.0480  138.8771  159.5233 C.2     1  UNL1        0.0780
     32 C         139.5993  138.6830  158.1051 C.1     1  UNL1        0.1011
     33 N         139.1507  138.4889  156.6870 N.1     1  UNL1       -0.1908
@<TRIPOS>BOND
     1    22    23    1
     2    23    24   ar
     3    24    25   ar
     4    25    30    1
     5    30    31    2
     6    31    32    1
     7    32    33    3
     8    25    26   ar
     9    26    27   ar
    10    27    28    1
    11    27    29   ar
    12    29    21    1
    13    21     1    1
    14     1     2   ar
    15     2     3   ar
    16     3    10    1
    17    10    12    1
    18    12    13   ar
    19    13    14   ar
    20    14    15   ar
    21    15    19    1
    22    19    20    3
    23    15    16   ar
    24    16    17   ar
    25    17    18    1
    26     3     4   ar
    27     4     5   ar
    28     5     6   ar
    29     6     7   ar
    30     7     8   ar
    31     8     9   ar
    32    29    23   ar
    33     9     1   ar
    34    17    12   ar
    35     9     5   ar
    36    10    11    1
