@<TRIPOS>MOLECULE
*****
 30 33 0 0 0
SMALL
GASTEIGER

@<TRIPOS>ATOM
      1 C         139.6589  139.9409  166.3743 C.ar    1  UNL1        0.0536
      2 C         138.9004  138.7179  165.9513 C.ar    1  UNL1        0.0047
      3 C         138.4279  138.5812  164.5343 C.ar    1  UNL1        0.0063
      4 C         138.7139  139.6676  163.5403 C.ar    1  UNL1        0.0718
      5 C         139.4723  140.8906  163.9633 C.ar    1  UNL1       -0.0118
      6 C         139.9449  141.0272  165.3803 C.ar    1  UNL1        0.0006
      7 C         139.7583  141.9769  162.9692 C.3     1  UNL1        0.0748
      8 C         139.2858  141.8403  161.5522 C.3     1  UNL1        0.1957
      9 O         138.5273  140.6172  161.1291 O.3     1  UNL1       -0.4443
     10 C         138.2413  139.5309  162.1232 C.2     1  UNL1        0.3411
     11 O         137.4829  138.3079  161.7002 O.2     1  UNL1       -0.2449
     12 C         139.5717  142.9266  160.5582 C.ar    1  UNL1        0.0177
     13 C         140.0937  144.2528  161.0260 C.ar    1  UNL1        0.0001
     14 C         140.3797  145.3392  160.0319 C.ar    1  UNL1        0.0112
     15 C         140.1436  145.0993  158.5701 C.ar    1  UNL1        0.0577
     16 CL        140.4296  146.1856  157.5761 Cl      1  UNL1       -0.0822
     17 C         139.6217  143.7731  158.1024 C.ar    1  UNL1        0.0112
     18 C         139.3357  142.6868  159.0964 C.ar    1  UNL1        0.0001
     19 N         141.5652  140.4154  168.0746 N.am    1  UNL1       -0.2534
     20 C         142.0377  140.5521  169.4917 C.3     1  UNL1        0.1203
     21 C         140.1315  140.0776  167.7914 C.2     1  UNL1        0.2528
     22 O         139.1702  139.8764  168.9252 O.2     1  UNL1       -0.2696
     23 C         145.4102  141.2199  163.5393 C.3     1  UNL1        0.0307
     24 C         144.4489  141.0188  164.6731 C.ar    1  UNL1       -0.0257
     25 C         144.0032  139.6349  165.0420 C.ar    1  UNL1       -0.0033
     26 C         143.0419  139.4338  166.1758 C.ar    1  UNL1        0.0146
     27 C         142.5264  140.6165  166.9408 C.ar    1  UNL1        0.0538
     28 C         142.9722  142.0005  166.5720 C.ar    1  UNL1        0.0103
     29 C         143.9334  142.2017  165.4382 C.ar    1  UNL1       -0.0246
     30 C         144.3792  143.5856  165.0693 C.3     1  UNL1        0.0307
@<TRIPOS>BOND
     1    23    24    1
     2    24    25   ar
     3    25    26   ar
     4    26    27   ar
     5    27    19    1
     6    19    20    1
     7    19    21   am
     8    21    22    2
     9    21     1    1
    10     1     2   ar
    11     2     3   ar
    12     3     4   ar
    13     4     5   ar
    14     5     6   ar
    15     5     7    1
    16     7     8    1
    17     8    12    1
    18    12    13   ar
    19    13    14   ar
    20    14    15   ar
    21    15    16    1
    22    15    17   ar
    23    17    18   ar
    24     8     9    1
    25     9    10    1
    26    10    11    2
    27    27    28   ar
    28    28    29   ar
    29    29    30    1
    30    29    24   ar
    31     6     1   ar
    32    18    12   ar
    33    10     4    1
@<TRIPOS>MOLECULE
*****
 30 33 0 0 0
SMALL
GASTEIGER

@<TRIPOS>ATOM
      1 C         140.2651  143.1065  166.1012 C.ar    1  UNL1        0.0536
      2 C         139.2147  144.1498  165.8603 C.ar    1  UNL1        0.0047
      3 C         139.1110  144.8139  164.5193 C.ar    1  UNL1        0.0063
      4 C         140.0576  144.4347  163.4193 C.ar    1  UNL1        0.0718
      5 C         141.1079  143.3913  163.6602 C.ar    1  UNL1       -0.0118
      6 C         141.2117  142.7272  165.0012 C.ar    1  UNL1        0.0006
      7 C         142.0546  143.0120  162.5602 C.3     1  UNL1        0.0748
      8 C         141.9508  143.6761  161.2192 C.3     1  UNL1        0.1957
      9 O         140.9004  144.7195  160.9783 O.3     1  UNL1       -0.4443
     10 C         139.9538  145.0988  162.0783 C.2     1  UNL1        0.3411
     11 O         138.9035  146.1422  161.8374 O.2     1  UNL1       -0.2449
     12 C         142.8974  143.2968  160.1192 C.ar    1  UNL1        0.0177
     13 C         144.2406  142.7179  160.4520 C.ar    1  UNL1        0.0001
     14 C         145.1873  142.3386  159.3520 C.ar    1  UNL1        0.0112
     15 C         144.7906  142.5383  157.9191 C.ar    1  UNL1        0.0577
     16 CL        145.7372  142.1590  156.8191 Cl      1  UNL1       -0.0822
     17 C         143.4475  143.1172  157.5864 C.ar    1  UNL1        0.0112
     18 C         142.5009  143.4964  158.6864 C.ar    1  UNL1        0.0001
     19 N         140.1179  140.9691  167.5709 N.am    1  UNL1       -0.2534
     20 C         140.2217  140.3049  168.9119 C.3     1  UNL1        0.1203
     21 C         140.3689  142.4423  167.4422 C.2     1  UNL1        0.2528
     22 O         140.7236  143.2514  168.6544 O.2     1  UNL1       -0.2696
     23 C         138.6989  137.7326  162.7221 C.3     1  UNL1        0.0307
     24 C         139.0537  138.5417  163.9343 C.ar    1  UNL1       -0.0257
     25 C         138.1207  139.6100  164.4223 C.ar    1  UNL1       -0.0033
     26 C         138.4754  140.4191  165.6345 C.ar    1  UNL1        0.0146
     27 C         139.7632  140.1600  166.3587 C.ar    1  UNL1        0.0538
     28 C         140.6962  139.0916  165.8707 C.ar    1  UNL1        0.0103
     29 C         140.3415  138.2825  164.6585 C.ar    1  UNL1       -0.0246
     30 C         141.2745  137.2142  164.1705 C.3     1  UNL1        0.0307
@<TRIPOS>BOND
     1    23    24    1
     2    24    25   ar
     3    25    26   ar
     4    26    27   ar
     5    27    19    1
     6    19    20    1
     7    19    21   am
     8    21    22    2
     9    21     1    1
    10     1     2   ar
    11     2     3   ar
    12     3     4   ar
    13     4     5   ar
    14     5     6   ar
    15     5     7    1
    16     7     8    1
    17     8    12    1
    18    12    13   ar
    19    13    14   ar
    20    14    15   ar
    21    15    16    1
    22    15    17   ar
    23    17    18   ar
    24     8     9    1
    25     9    10    1
    26    10    11    2
    27    27    28   ar
    28    28    29   ar
    29    29    30    1
    30    29    24   ar
    31     6     1   ar
    32    18    12   ar
    33    10     4    1
@<TRIPOS>MOLECULE
*****
 30 33 0 0 0
SMALL
GASTEIGER

@<TRIPOS>ATOM
      1 C         139.7417  140.4525  165.3885 C.ar    1  UNL1        0.0536
      2 C         138.9260  141.6873  165.1440 C.ar    1  UNL1        0.0047
      3 C         138.5987  142.1042  163.7408 C.ar    1  UNL1        0.0063
      4 C         139.0870  141.2863  162.5821 C.ar    1  UNL1        0.0718
      5 C         139.9027  140.0514  162.8267 C.ar    1  UNL1       -0.0118
      6 C         140.2300  139.6345  164.2299 C.ar    1  UNL1        0.0006
      7 C         140.3910  139.2335  161.6680 C.3     1  UNL1        0.0748
      8 C         140.0637  139.6504  160.2648 C.3     1  UNL1        0.1957
      9 O         139.2480  140.8853  160.0202 O.3     1  UNL1       -0.4443
     10 C         138.7597  141.7032  161.1789 C.2     1  UNL1        0.3411
     11 O         137.9441  142.9381  160.9343 O.2     1  UNL1       -0.2449
     12 C         140.5520  138.8324  159.1062 C.ar    1  UNL1        0.0177
     13 C         141.9821  138.3824  159.0556 C.ar    1  UNL1        0.0001
     14 C         142.4704  137.5645  157.8969 C.ar    1  UNL1        0.0112
     15 C         141.5287  137.1965  156.7889 C.ar    1  UNL1        0.0577
     16 CL        142.0170  136.3785  155.6302 Cl      1  UNL1       -0.0822
     17 C         140.0987  137.6465  156.8395 C.ar    1  UNL1        0.0112
     18 C         139.6104  138.4644  157.9981 C.ar    1  UNL1        0.0001
     19 N         141.4937  140.0354  167.2611 N.am    1  UNL1       -0.2534
     20 C         141.8210  139.6184  168.6644 C.3     1  UNL1        0.1203
     21 C         140.0690  140.0356  166.7918 C.2     1  UNL1        0.2528
     22 O         138.9716  139.6188  167.7257 O.2     1  UNL1       -0.2696
     23 C         145.8831  141.7024  163.5257 C.3     1  UNL1        0.0307
     24 C         144.7858  141.2856  164.4595 C.ar    1  UNL1       -0.0257
     25 C         144.4654  139.8312  164.6388 C.ar    1  UNL1       -0.0033
     26 C         143.3681  139.4145  165.5726 C.ar    1  UNL1        0.0146
     27 C         142.5910  140.4521  166.3273 C.ar    1  UNL1        0.0538
     28 C         142.9113  141.9066  166.1481 C.ar    1  UNL1        0.0103
     29 C         144.0087  142.3233  165.2142 C.ar    1  UNL1       -0.0246
     30 C         144.3290  143.7777  165.0350 C.3     1  UNL1        0.0307
@<TRIPOS>BOND
     1    23    24    1
     2    24    25   ar
     3    25    26   ar
     4    26    27   ar
     5    27    19    1
     6    19    20    1
     7    19    21   am
     8    21    22    2
     9    21     1    1
    10     1     2   ar
    11     2     3   ar
    12     3     4   ar
    13     4     5   ar
    14     5     6   ar
    15     5     7    1
    16     7     8    1
    17     8    12    1
    18    12    13   ar
    19    13    14   ar
    20    14    15   ar
    21    15    16    1
    22    15    17   ar
    23    17    18   ar
    24     8     9    1
    25     9    10    1
    26    10    11    2
    27    27    28   ar
    28    28    29   ar
    29    29    30    1
    30    29    24   ar
    31     6     1   ar
    32    18    12   ar
    33    10     4    1
@<TRIPOS>MOLECULE
*****
 30 33 0 0 0
SMALL
GASTEIGER

@<TRIPOS>ATOM
      1 C         139.7815  141.2479  165.9829 C.ar    1  UNL1        0.0536
      2 C         139.3033  142.6640  166.1091 C.ar    1  UNL1        0.0047
      3 C         138.8300  143.4067  164.8950 C.ar    1  UNL1        0.0063
      4 C         138.8347  142.7333  163.5546 C.ar    1  UNL1        0.0718
      5 C         139.3128  141.3172  163.4284 C.ar    1  UNL1       -0.0118
      6 C         139.7862  140.5745  164.6426 C.ar    1  UNL1        0.0006
      7 C         139.3176  140.6438  162.0881 C.3     1  UNL1        0.0748
      8 C         138.8442  141.3866  160.8739 C.3     1  UNL1        0.1957
      9 O         138.3660  142.8028  161.0001 O.3     1  UNL1       -0.4443
     10 C         138.3613  143.4761  162.3404 C.2     1  UNL1        0.3411
     11 O         137.8831  144.8922  162.4666 O.2     1  UNL1       -0.2449
     12 C         138.8489  140.7132  159.5336 C.ar    1  UNL1        0.0177
     13 C         138.1073  141.3270  158.3832 C.ar    1  UNL1        0.0001
     14 C         138.1120  140.6536  157.0429 C.ar    1  UNL1        0.0112
     15 C         138.8584  139.3664  156.8529 C.ar    1  UNL1        0.0577
     16 CL        138.8631  138.6930  155.5126 Cl      1  UNL1       -0.0822
     17 C         139.6000  138.7526  158.0032 C.ar    1  UNL1        0.0112
     18 C         139.5952  139.4260  159.3436 C.ar    1  UNL1        0.0001
     19 N         141.7138  140.2019  167.3694 N.am    1  UNL1       -0.2534
     20 C         142.1872  139.4591  168.5836 C.3     1  UNL1        0.1203
     21 C         140.2549  140.5051  167.1971 C.2     1  UNL1        0.2528
     22 O         139.2694  140.0655  168.2390 O.2     1  UNL1       -0.2696
     23 C         145.6559  141.9604  163.2019 C.3     1  UNL1        0.0307
     24 C         144.6704  141.5208  164.2438 C.ar    1  UNL1       -0.0257
     25 C         144.2752  140.0770  164.3407 C.ar    1  UNL1       -0.0033
     26 C         143.2897  139.6374  165.3825 C.ar    1  UNL1        0.0146
     27 C         142.6993  140.6416  166.3275 C.ar    1  UNL1        0.0538
     28 C         143.0944  142.0854  166.2307 C.ar    1  UNL1        0.0103
     29 C         144.0799  142.5250  165.1888 C.ar    1  UNL1       -0.0246
     30 C         144.4751  143.9688  165.0920 C.3     1  UNL1        0.0307
@<TRIPOS>BOND
     1    23    24    1
     2    24    25   ar
     3    25    26   ar
     4    26    27   ar
     5    27    19    1
     6    19    20    1
     7    19    21   am
     8    21    22    2
     9    21     1    1
    10     1     2   ar
    11     2     3   ar
    12     3     4   ar
    13     4     5   ar
    14     5     6   ar
    15     5     7    1
    16     7     8    1
    17     8    12    1
    18    12    13   ar
    19    13    14   ar
    20    14    15   ar
    21    15    16    1
    22    15    17   ar
    23    17    18   ar
    24     8     9    1
    25     9    10    1
    26    10    11    2
    27    27    28   ar
    28    28    29   ar
    29    29    30    1
    30    29    24   ar
    31     6     1   ar
    32    18    12   ar
    33    10     4    1
@<TRIPOS>MOLECULE
*****
 30 33 0 0 0
SMALL
GASTEIGER

@<TRIPOS>ATOM
      1 C         142.7668  140.1550  165.3142 C.ar    1  UNL1        0.0536
      2 C         143.7782  141.2406  165.0946 C.ar    1  UNL1        0.0047
      3 C         144.2118  141.5911  163.7021 C.ar    1  UNL1        0.0063
      4 C         143.6341  140.8558  162.5292 C.ar    1  UNL1        0.0718
      5 C         142.6227  139.7701  162.7489 C.ar    1  UNL1       -0.0118
      6 C         142.1890  139.4197  164.1414 C.ar    1  UNL1        0.0006
      7 C         142.0449  139.0349  161.5760 C.3     1  UNL1        0.0748
      8 C         142.4786  139.3853  160.1835 C.3     1  UNL1        0.1957
      9 O         143.4900  140.4711  159.9638 O.3     1  UNL1       -0.4443
     10 C         144.0678  141.2063  161.1367 C.2     1  UNL1        0.3411
     11 O         145.0792  142.2920  160.9170 O.2     1  UNL1       -0.2449
     12 C         141.9008  138.6501  159.0107 C.ar    1  UNL1        0.0177
     13 C         142.7808  137.7787  158.1642 C.ar    1  UNL1        0.0001
     14 C         142.2031  137.0434  156.9914 C.ar    1  UNL1        0.0112
     15 C         140.7453  137.1795  156.6649 C.ar    1  UNL1        0.0577
     16 CL        140.1676  136.4443  155.4921 Cl      1  UNL1       -0.0822
     17 C         139.8654  138.0509  157.5113 C.ar    1  UNL1        0.0112
     18 C         140.4431  138.7862  158.6842 C.ar    1  UNL1        0.0001
     19 N         141.0733  140.3921  167.2702 N.am    1  UNL1       -0.2534
     20 C         140.6396  140.0416  168.6628 C.3     1  UNL1        0.1203
     21 C         142.3331  139.8045  166.7068 C.2     1  UNL1        0.2528
     22 O         143.1593  138.8663  167.5359 O.2     1  UNL1       -0.2696
     23 C         137.7685  144.1445  163.9540 C.3     1  UNL1        0.0307
     24 C         138.5947  143.2064  164.7830 C.ar    1  UNL1       -0.0257
     25 C         139.5778  143.7509  165.7764 C.ar    1  UNL1       -0.0033
     26 C         140.4040  142.8128  166.6054 C.ar    1  UNL1        0.0146
     27 C         140.2471  141.3302  166.4412 C.ar    1  UNL1        0.0538
     28 C         139.2638  140.7856  165.4478 C.ar    1  UNL1        0.0103
     29 C         138.4376  141.7237  164.6187 C.ar    1  UNL1       -0.0246
     30 C         137.4545  141.1791  163.6254 C.3     1  UNL1        0.0307
@<TRIPOS>BOND
     1    23    24    1
     2    24    25   ar
     3    25    26   ar
     4    26    27   ar
     5    27    19    1
     6    19    20    1
     7    19    21   am
     8    21    22    2
     9    21     1    1
    10     1     2   ar
    11     2     3   ar
    12     3     4   ar
    13     4     5   ar
    14     5     6   ar
    15     5     7    1
    16     7     8    1
    17     8    12    1
    18    12    13   ar
    19    13    14   ar
    20    14    15   ar
    21    15    16    1
    22    15    17   ar
    23    17    18   ar
    24     8     9    1
    25     9    10    1
    26    10    11    2
    27    27    28   ar
    28    28    29   ar
    29    29    30    1
    30    29    24   ar
    31     6     1   ar
    32    18    12   ar
    33    10     4    1
@<TRIPOS>MOLECULE
*****
 30 33 0 0 0
SMALL
GASTEIGER

@<TRIPOS>ATOM
      1 C         142.1758  142.0319  166.2041 C.ar    1  UNL1        0.0536
      2 C         143.5668  141.4829  166.0870 C.ar    1  UNL1        0.0047
      3 C         144.3236  141.6260  164.7999 C.ar    1  UNL1        0.0063
      4 C         143.6894  142.3180  163.6299 C.ar    1  UNL1        0.0718
      5 C         142.2985  142.8670  163.7470 C.ar    1  UNL1       -0.0118
      6 C         141.5416  142.7240  165.0341 C.ar    1  UNL1        0.0006
      7 C         141.6643  143.5590  162.5770 C.3     1  UNL1        0.0748
      8 C         142.4212  143.7021  161.2898 C.3     1  UNL1        0.1957
      9 O         143.8122  143.1531  161.1727 O.3     1  UNL1       -0.4443
     10 C         144.4463  142.4610  162.3427 C.2     1  UNL1        0.3411
     11 O         145.8373  141.9120  162.2256 O.2     1  UNL1       -0.2449
     12 C         141.7870  144.3941  160.1198 C.ar    1  UNL1        0.0177
     13 C         142.2849  144.1267  158.7303 C.ar    1  UNL1        0.0001
     14 C         141.6507  144.8188  157.5603 C.ar    1  UNL1        0.0112
     15 C         140.5187  145.7782  157.7798 C.ar    1  UNL1        0.0577
     16 CL        139.8846  146.4702  156.6098 Cl      1  UNL1       -0.0822
     17 C         140.0209  146.0456  159.1693 C.ar    1  UNL1        0.0112
     18 C         140.6551  145.3535  160.3393 C.ar    1  UNL1        0.0001
     19 N         140.2639  140.9360  167.5803 N.am    1  UNL1       -0.2534
     20 C         139.5070  140.7930  168.8674 C.3     1  UNL1        0.1203
     21 C         141.4189  141.8889  167.4913 C.2     1  UNL1        0.2528
     22 O         141.8170  142.6988  168.6894 O.2     1  UNL1       -0.2696
     23 C         138.6713  137.6963  162.7878 C.3     1  UNL1        0.0307
     24 C         139.0695  138.5062  163.9859 C.ar    1  UNL1       -0.0257
     25 C         138.2288  139.6714  164.4166 C.ar    1  UNL1       -0.0033
     26 C         138.6269  140.4813  165.6147 C.ar    1  UNL1        0.0146
     27 C         139.8658  140.1261  166.3821 C.ar    1  UNL1        0.0538
     28 C         140.7065  138.9609  165.9515 C.ar    1  UNL1        0.0103
     29 C         140.3084  138.1509  164.7534 C.ar    1  UNL1       -0.0246
     30 C         141.1491  136.9857  164.3227 C.3     1  UNL1        0.0307
@<TRIPOS>BOND
     1    23    24    1
     2    24    25   ar
     3    25    26   ar
     4    26    27   ar
     5    27    19    1
     6    19    20    1
     7    19    21   am
     8    21    22    2
     9    21     1    1
    10     1     2   ar
    11     2     3   ar
    12     3     4   ar
    13     4     5   ar
    14     5     6   ar
    15     5     7    1
    16     7     8    1
    17     8    12    1
    18    12    13   ar
    19    13    14   ar
    20    14    15   ar
    21    15    16    1
    22    15    17   ar
    23    17    18   ar
    24     8     9    1
    25     9    10    1
    26    10    11    2
    27    27    28   ar
    28    28    29   ar
    29    29    30    1
    30    29    24   ar
    31     6     1   ar
    32    18    12   ar
    33    10     4    1
@<TRIPOS>MOLECULE
*****
 30 33 0 0 0
SMALL
GASTEIGER

@<TRIPOS>ATOM
      1 C         140.1016  141.9117  161.2688 C.ar    1  UNL1        0.0536
      2 C         140.1294  140.5224  161.8334 C.ar    1  UNL1        0.0047
      3 C         141.1513  139.5366  161.3498 C.ar    1  UNL1        0.0063
      4 C         142.1455  139.9402  160.3016 C.ar    1  UNL1        0.0718
      5 C         142.1177  141.3296  159.7370 C.ar    1  UNL1       -0.0118
      6 C         141.0958  142.3154  160.2206 C.ar    1  UNL1        0.0006
      7 C         143.1118  141.7332  158.6887 C.3     1  UNL1        0.0748
      8 C         144.1338  140.7475  158.2052 C.3     1  UNL1        0.1957
      9 O         144.1616  139.3580  158.7698 O.3     1  UNL1       -0.4443
     10 C         143.1674  138.9544  159.8180 C.2     1  UNL1        0.3411
     11 O         143.1952  137.5650  160.3826 O.2     1  UNL1       -0.2449
     12 C         145.1279  141.1511  157.1569 C.ar    1  UNL1        0.0177
     13 C         145.2010  140.3967  155.8625 C.ar    1  UNL1        0.0001
     14 C         146.1951  140.8003  154.8142 C.ar    1  UNL1        0.0112
     15 C         147.1162  141.9583  155.0605 C.ar    1  UNL1        0.0577
     16 CL        148.1104  142.3619  154.0123 Cl      1  UNL1       -0.0822
     17 C         147.0432  142.7127  156.3549 C.ar    1  UNL1        0.0112
     18 C         146.0490  142.3091  157.4031 C.ar    1  UNL1        0.0001
     19 N         139.4141  143.8349  162.8746 N.am    1  UNL1       -0.2534
     20 C         138.3921  144.8208  163.3582 C.3     1  UNL1        0.1203
     21 C         139.0797  142.8976  161.7524 C.2     1  UNL1        0.2528
     22 O         137.7233  142.9460  161.1136 O.2     1  UNL1       -0.2696
     23 C         144.8394  143.6412  165.4296 C.3     1  UNL1        0.0307
     24 C         143.4831  143.6896  164.7908 C.ar    1  UNL1       -0.0257
     25 C         143.2115  144.6601  163.6798 C.ar    1  UNL1       -0.0033
     26 C         141.8552  144.7085  163.0411 C.ar    1  UNL1        0.0146
     27 C         140.7704  143.7865  163.5134 C.ar    1  UNL1        0.0538
     28 C         141.0419  142.8159  164.6244 C.ar    1  UNL1        0.0103
     29 C         142.3983  142.7675  165.2632 C.ar    1  UNL1       -0.0246
     30 C         142.6699  141.7970  166.3742 C.3     1  UNL1        0.0307
@<TRIPOS>BOND
     1    23    24    1
     2    24    25   ar
     3    25    26   ar
     4    26    27   ar
     5    27    19    1
     6    19    20    1
     7    19    21   am
     8    21    22    2
     9    21     1    1
    10     1     2   ar
    11     2     3   ar
    12     3     4   ar
    13     4     5   ar
    14     5     6   ar
    15     5     7    1
    16     7     8    1
    17     8    12    1
    18    12    13   ar
    19    13    14   ar
    20    14    15   ar
    21    15    16    1
    22    15    17   ar
    23    17    18   ar
    24     8     9    1
    25     9    10    1
    26    10    11    2
    27    27    28   ar
    28    28    29   ar
    29    29    30    1
    30    29    24   ar
    31     6     1   ar
    32    18    12   ar
    33    10     4    1
@<TRIPOS>MOLECULE
*****
 30 33 0 0 0
SMALL
GASTEIGER

@<TRIPOS>ATOM
      1 C         141.3603  139.7216  165.3323 C.ar    1  UNL1        0.0536
      2 C         139.9371  139.2570  165.4264 C.ar    1  UNL1        0.0047
      3 C         139.2180  138.7894  164.1959 C.ar    1  UNL1        0.0063
      4 C         139.9219  138.7862  162.8714 C.ar    1  UNL1        0.0718
      5 C         141.3450  139.2508  162.7773 C.ar    1  UNL1       -0.0118
      6 C         142.0642  139.7185  164.0077 C.ar    1  UNL1        0.0006
      7 C         142.0490  139.2477  161.4527 C.3     1  UNL1        0.0748
      8 C         141.3298  138.7800  160.2223 C.3     1  UNL1        0.1957
      9 O         139.9066  138.3154  160.3163 O.3     1  UNL1       -0.4443
     10 C         139.2027  138.3185  161.6409 C.2     1  UNL1        0.3411
     11 O         137.7796  137.8540  161.7350 O.2     1  UNL1       -0.2449
     12 C         142.0338  138.7769  158.8977 C.ar    1  UNL1        0.0177
     13 C         142.4762  140.0705  158.2805 C.ar    1  UNL1        0.0001
     14 C         143.1801  140.0674  156.9559 C.ar    1  UNL1        0.0112
     15 C         143.4417  138.7707  156.2486 C.ar    1  UNL1        0.0577
     16 CL        144.1456  138.7676  154.9240 Cl      1  UNL1       -0.0822
     17 C         142.9992  137.4772  156.8659 C.ar    1  UNL1        0.0112
     18 C         142.2953  137.4803  158.1904 C.ar    1  UNL1        0.0001
     19 N         142.2649  141.6569  166.8108 N.am    1  UNL1       -0.2534
     20 C         142.9842  142.1246  168.0413 C.3     1  UNL1        0.1203
     21 C         142.0795  140.1893  166.5628 C.2     1  UNL1        0.2528
     22 O         142.6133  139.1893  167.5451 O.2     1  UNL1       -0.2696
     23 C         140.1297  145.6570  162.8814 C.3     1  UNL1        0.0307
     24 C         140.6635  144.6570  163.8638 C.ar    1  UNL1       -0.0257
     25 C         142.0886  144.1987  163.7681 C.ar    1  UNL1       -0.0033
     26 C         142.6224  143.1987  164.7505 C.ar    1  UNL1        0.0146
     27 C         141.7311  142.6569  165.8285 C.ar    1  UNL1        0.0538
     28 C         140.3060  143.1152  165.9242 C.ar    1  UNL1        0.0103
     29 C         139.7722  144.1152  164.9418 C.ar    1  UNL1       -0.0246
     30 C         138.3472  144.5735  165.0375 C.3     1  UNL1        0.0307
@<TRIPOS>BOND
     1    23    24    1
     2    24    25   ar
     3    25    26   ar
     4    26    27   ar
     5    27    19    1
     6    19    20    1
     7    19    21   am
     8    21    22    2
     9    21     1    1
    10     1     2   ar
    11     2     3   ar
    12     3     4   ar
    13     4     5   ar
    14     5     6   ar
    15     5     7    1
    16     7     8    1
    17     8    12    1
    18    12    13   ar
    19    13    14   ar
    20    14    15   ar
    21    15    16    1
    22    15    17   ar
    23    17    18   ar
    24     8     9    1
    25     9    10    1
    26    10    11    2
    27    27    28   ar
    28    28    29   ar
    29    29    30    1
    30    29    24   ar
    31     6     1   ar
    32    18    12   ar
    33    10     4    1
@<TRIPOS>MOLECULE
*****
 30 33 0 0 0
SMALL
GASTEIGER

@<TRIPOS>ATOM
      1 C         142.4929  139.9474  160.7206 C.ar    1  UNL1        0.0536
      2 C         141.3663  139.1263  160.1667 C.ar    1  UNL1        0.0047
      3 C         140.3026  138.5979  161.0828 C.ar    1  UNL1        0.0063
      4 C         140.3653  138.8905  162.5526 C.ar    1  UNL1        0.0718
      5 C         141.4919  139.7116  163.1064 C.ar    1  UNL1       -0.0118
      6 C         142.5556  140.2400  162.1904 C.ar    1  UNL1        0.0006
      7 C         141.5547  140.0042  164.5763 C.3     1  UNL1        0.0748
      8 C         140.4909  139.4757  165.4923 C.3     1  UNL1        0.1957
      9 O         139.3643  138.6546  164.9385 O.3     1  UNL1       -0.4443
     10 C         139.3015  138.3620  163.4686 C.2     1  UNL1        0.3411
     11 O         138.1750  137.5410  162.9148 O.2     1  UNL1       -0.2449
     12 C         140.5537  139.7683  166.9621 C.ar    1  UNL1        0.0177
     13 C         139.2877  139.9633  167.7428 C.ar    1  UNL1        0.0001
     14 C         139.3504  140.2559  169.2126 C.ar    1  UNL1        0.0112
     15 C         140.6792  140.3535  169.9018 C.ar    1  UNL1        0.0577
     16 CL        140.7420  140.6462  171.3717 Cl      1  UNL1       -0.0822
     17 C         141.9451  140.1586  169.1212 C.ar    1  UNL1        0.0112
     18 C         141.8823  139.8660  167.6513 C.ar    1  UNL1        0.0001
     19 N         143.7022  141.9545  159.5984 N.am    1  UNL1       -0.2534
     20 C         144.7660  142.4829  158.6824 C.3     1  UNL1        0.1203
     21 C         143.5567  140.4759  159.8045 C.2     1  UNL1        0.2528
     22 O         144.4750  139.5257  159.0947 O.2     1  UNL1       -0.2696
     23 C         140.0290  145.7552  162.4377 C.3     1  UNL1        0.0307
     24 C         140.9473  144.8050  161.7279 C.ar    1  UNL1       -0.0257
     25 C         140.5156  144.1644  160.4421 C.ar    1  UNL1       -0.0033
     26 C         141.4339  143.2142  159.7323 C.ar    1  UNL1        0.0146
     27 C         142.7839  142.9046  160.3082 C.ar    1  UNL1        0.0538
     28 C         143.2156  143.5453  161.5940 C.ar    1  UNL1        0.0103
     29 C         142.2973  144.4955  162.3039 C.ar    1  UNL1       -0.0246
     30 C         142.7290  145.1361  163.5896 C.3     1  UNL1        0.0307
@<TRIPOS>BOND
     1    23    24    1
     2    24    25   ar
     3    25    26   ar
     4    26    27   ar
     5    27    19    1
     6    19    20    1
     7    19    21   am
     8    21    22    2
     9    21     1    1
    10     1     2   ar
    11     2     3   ar
    12     3     4   ar
    13     4     5   ar
    14     5     6   ar
    15     5     7    1
    16     7     8    1
    17     8    12    1
    18    12    13   ar
    19    13    14   ar
    20    14    15   ar
    21    15    16    1
    22    15    17   ar
    23    17    18   ar
    24     8     9    1
    25     9    10    1
    26    10    11    2
    27    27    28   ar
    28    28    29   ar
    29    29    30    1
    30    29    24   ar
    31     6     1   ar
    32    18    12   ar
    33    10     4    1
