@<TRIPOS>MOLECULE
*****
 27 30 0 0 0
SMALL
GASTEIGER

@<TRIPOS>ATOM
      1 C         142.4761  139.6007  166.8808 C.ar    1  UNL1        0.0842
      2 C         141.5920  140.7852  167.1360 C.ar    1  UNL1        0.0383
      3 C         141.2656  141.1882  168.5436 C.ar    1  UNL1        0.0855
      4 N         140.3815  142.3728  168.7987 N.ar    1  UNL1       -0.2437
      5 C         140.0552  142.7757  170.2063 C.ar    1  UNL1        0.0988
      6 C         140.6131  141.9941  171.3586 C.ar    1  UNL1        0.0208
      7 C         141.4972  140.8095  171.1034 C.ar    1  UNL1        0.0059
      8 C         141.8235  140.4066  169.6959 C.ar    1  UNL1        0.0491
      9 C         142.7077  139.2220  169.4407 C.ar    1  UNL1        0.1298
     10 N         143.0339  138.8191  168.0332 N.ar    1  UNL1       -0.2308
     11 C         143.7814  137.9889  161.2507 C.3     1  UNL1        0.0310
     12 C         143.4551  138.3919  162.6582 C.ar    1  UNL1       -0.0218
     13 C         142.1668  137.9486  163.2857 C.ar    1  UNL1       -0.0042
     14 C         141.8404  138.3515  164.6932 C.ar    1  UNL1        0.0012
     15 C         142.8024  139.1977  165.4732 C.ar    1  UNL1        0.0177
     16 C         144.0907  139.6410  164.8458 C.ar    1  UNL1        0.0012
     17 C         144.4171  139.2380  163.4383 C.ar    1  UNL1       -0.0042
     18 N         143.2655  138.4404  170.5930 N.pl3   1  UNL1       -0.3180
     19 H         143.2858  138.8378  171.4935 H       1  UNL1        0.1482
     20 C         143.7925  137.0534  170.3734 C.3     1  UNL1        0.0895
     21 C         144.6414  136.3986  171.4225 C.3     1  UNL1        0.0353
     22 C         145.6902  137.1935  172.1422 C.3     1  UNL1        0.0045
     23 C         146.5391  136.5388  173.1914 C.3     1  UNL1        0.0172
     24 C         146.3391  135.0892  173.5209 C.3     1  UNL1        0.0686
     25 N         145.2902  134.2942  172.8012 N.3     1  UNL1       -0.2974
     26 C         144.4413  134.9490  171.7520 C.3     1  UNL1        0.0702
     27 H         144.6538  133.9343  173.5125 H       1  UNL1        0.1232
@<TRIPOS>BOND
     1    11    12    1
     2    12    13   ar
     3    13    14   ar
     4    14    15   ar
     5    15     1    1
     6     1     2   ar
     7     2     3   ar
     8     3     4   ar
     9     4     5   ar
    10     5     6   ar
    11     6     7   ar
    12     7     8   ar
    13     8     9   ar
    14     9    18    1
    15    18    20    1
    16    21    20    1
    17    21    22    1
    18    22    23    1
    19    23    24    1
    20    24    25    1
    21    25    26    1
    22     9    10   ar
    23    15    16   ar
    24    16    17   ar
    25    17    12   ar
    26    10     1   ar
    27     8     3   ar
    28    26    21    1
    29    18    19    1
    30    25    27    1
@<TRIPOS>MOLECULE
*****
 27 30 0 0 0
SMALL
GASTEIGER

@<TRIPOS>ATOM
      1 C         139.5956  139.9823  166.9550 C.ar    1  UNL1        0.0842
      2 C         140.8391  140.7991  167.1460 C.ar    1  UNL1        0.0383
      3 C         141.2379  141.2478  168.5207 C.ar    1  UNL1        0.0855
      4 N         142.4814  142.0646  168.7117 N.ar    1  UNL1       -0.2437
      5 C         142.8801  142.5132  170.0864 C.ar    1  UNL1        0.0988
      6 C         142.0355  142.1450  171.2700 C.ar    1  UNL1        0.0208
      7 C         140.7920  141.3282  171.0789 C.ar    1  UNL1        0.0059
      8 C         140.3932  140.8796  169.7043 C.ar    1  UNL1        0.0491
      9 C         139.1497  140.0627  169.5132 C.ar    1  UNL1        0.1298
     10 N         138.7509  139.6141  168.1386 N.ar    1  UNL1       -0.2308
     11 C         138.0003  138.1876  161.4563 C.3     1  UNL1        0.0310
     12 C         138.3992  138.6363  162.8310 C.ar    1  UNL1       -0.0218
     13 C         138.0332  140.0109  163.3070 C.ar    1  UNL1       -0.0042
     14 C         138.4320  140.4596  164.6816 C.ar    1  UNL1        0.0012
     15 C         139.1968  139.5336  165.5803 C.ar    1  UNL1        0.0177
     16 C         139.5628  138.1590  165.1043 C.ar    1  UNL1        0.0012
     17 C         139.1640  137.7104  163.7297 C.ar    1  UNL1       -0.0042
     18 N         138.3050  139.6945  170.6968 N.pl3   1  UNL1       -0.3180
     19 H         138.6142  139.9064  171.6072 H       1  UNL1        0.1482
     20 C         136.9893  139.0035  170.4934 C.3     1  UNL1        0.0895
     21 C         136.3770  138.2124  171.6110 C.3     1  UNL1        0.0353
     22 C         137.0898  137.0113  172.1580 C.3     1  UNL1        0.0045
     23 C         136.4775  136.2202  173.2757 C.3     1  UNL1        0.0172
     24 C         135.1522  136.6301  173.8463 C.3     1  UNL1        0.0686
     25 N         134.4393  137.8312  173.2993 N.3     1  UNL1       -0.2974
     26 C         135.0516  138.6223  172.1816 C.3     1  UNL1        0.0702
     27 H         134.3077  138.4758  174.0787 H       1  UNL1        0.1232
@<TRIPOS>BOND
     1    11    12    1
     2    12    13   ar
     3    13    14   ar
     4    14    15   ar
     5    15     1    1
     6     1     2   ar
     7     2     3   ar
     8     3     4   ar
     9     4     5   ar
    10     5     6   ar
    11     6     7   ar
    12     7     8   ar
    13     8     9   ar
    14     9    18    1
    15    18    20    1
    16    21    20    1
    17    21    22    1
    18    22    23    1
    19    23    24    1
    20    24    25    1
    21    25    26    1
    22     9    10   ar
    23    15    16   ar
    24    16    17   ar
    25    17    12   ar
    26    10     1   ar
    27     8     3   ar
    28    26    21    1
    29    18    19    1
    30    25    27    1
@<TRIPOS>MOLECULE
*****
 27 30 0 0 0
SMALL
GASTEIGER

@<TRIPOS>ATOM
      1 C         139.9361  142.6392  166.2021 C.ar    1  UNL1        0.0842
      2 C         140.5469  143.1298  167.4811 C.ar    1  UNL1        0.0383
      3 C         140.6120  142.2258  168.6764 C.ar    1  UNL1        0.0855
      4 N         141.2228  142.7165  169.9555 N.ar    1  UNL1       -0.2437
      5 C         141.2878  141.8125  171.1507 C.ar    1  UNL1        0.0988
      6 C         140.7420  140.4179  171.0668 C.ar    1  UNL1        0.0208
      7 C         140.1312  139.9272  169.7877 C.ar    1  UNL1        0.0059
      8 C         140.0662  140.8312  168.5925 C.ar    1  UNL1        0.0491
      9 C         139.4553  140.3405  167.3134 C.ar    1  UNL1        0.1298
     10 N         139.3903  141.2445  166.1182 N.ar    1  UNL1       -0.2308
     11 C         139.6757  146.2550  161.4210 C.3     1  UNL1        0.0310
     12 C         139.7408  145.3510  162.6163 C.ar    1  UNL1       -0.0218
     13 C         141.0565  145.0880  163.2870 C.ar    1  UNL1       -0.0042
     14 C         141.1216  144.1841  164.4822 C.ar    1  UNL1        0.0012
     15 C         139.8710  143.5432  165.0068 C.ar    1  UNL1        0.0177
     16 C         138.5553  143.8062  164.3361 C.ar    1  UNL1        0.0012
     17 C         138.4902  144.7101  163.1409 C.ar    1  UNL1       -0.0042
     18 N         138.9095  138.9459  167.2295 N.pl3   1  UNL1       -0.3180
     19 H         138.9905  138.3384  168.0000 H       1  UNL1        0.1482
     20 C         138.2403  138.4767  165.9717 C.3     1  UNL1        0.0895
     21 C         139.0579  138.2043  164.7440 C.3     1  UNL1        0.0353
     22 C         140.3565  137.4621  164.8570 C.3     1  UNL1        0.0045
     23 C         141.1740  137.1897  163.6293 C.3     1  UNL1        0.0172
     24 C         140.6929  137.6594  162.2884 C.3     1  UNL1        0.0686
     25 N         139.3943  138.4016  162.1753 N.3     1  UNL1       -0.2974
     26 C         138.5767  138.6740  163.4031 C.3     1  UNL1        0.0702
     27 H         138.8028  137.8650  161.5408 H       1  UNL1        0.1232
@<TRIPOS>BOND
     1    11    12    1
     2    12    13   ar
     3    13    14   ar
     4    14    15   ar
     5    15     1    1
     6     1     2   ar
     7     2     3   ar
     8     3     4   ar
     9     4     5   ar
    10     5     6   ar
    11     6     7   ar
    12     7     8   ar
    13     8     9   ar
    14     9    18    1
    15    18    20    1
    16    21    20    1
    17    21    22    1
    18    22    23    1
    19    23    24    1
    20    24    25    1
    21    25    26    1
    22     9    10   ar
    23    15    16   ar
    24    16    17   ar
    25    17    12   ar
    26    10     1   ar
    27     8     3   ar
    28    26    21    1
    29    18    19    1
    30    25    27    1
@<TRIPOS>MOLECULE
*****
 27 30 0 0 0
SMALL
GASTEIGER

@<TRIPOS>ATOM
      1 C         139.2998  141.1198  165.7457 C.ar    1  UNL1        0.0842
      2 C         139.1673  139.7743  165.0961 C.ar    1  UNL1        0.0383
      3 C         138.6258  139.6647  163.7015 C.ar    1  UNL1        0.0855
      4 N         138.4933  138.3192  163.0520 N.ar    1  UNL1       -0.2437
      5 C         137.9518  138.2096  161.6575 C.ar    1  UNL1        0.0988
      6 C         137.5428  139.4456  160.9125 C.ar    1  UNL1        0.0208
      7 C         137.6753  140.7912  161.5620 C.ar    1  UNL1        0.0059
      8 C         138.2168  140.9007  162.9565 C.ar    1  UNL1        0.0491
      9 C         138.3493  142.2463  163.6061 C.ar    1  UNL1        0.1298
     10 N         138.8908  142.3558  165.0007 N.ar    1  UNL1       -0.2308
     11 C         141.4659  141.5583  171.3239 C.3     1  UNL1        0.0310
     12 C         140.9244  141.4487  169.9293 C.ar    1  UNL1       -0.0218
     13 C         140.1700  140.2212  169.5120 C.ar    1  UNL1       -0.0042
     14 C         139.6284  140.1116  168.1175 C.ar    1  UNL1        0.0012
     15 C         139.8414  141.2294  167.1403 C.ar    1  UNL1        0.0177
     16 C         140.5958  142.4569  167.5575 C.ar    1  UNL1        0.0012
     17 C         141.1373  142.5665  168.9520 C.ar    1  UNL1       -0.0042
     18 N         137.9403  143.4823  162.8612 N.pl3   1  UNL1       -0.3180
     19 H         137.1641  143.4581  162.2561 H       1  UNL1        0.1482
     20 C         138.7140  144.7551  163.0380 C.3     1  UNL1        0.0895
     21 C         140.2074  144.7507  162.8976 C.3     1  UNL1        0.0353
     22 C         141.0758  144.7738  164.1205 C.3     1  UNL1        0.0045
     23 C         142.5692  144.7694  163.9801 C.3     1  UNL1        0.0172
     24 C         143.1942  144.7420  162.6168 C.3     1  UNL1        0.0686
     25 N         142.3259  144.7189  161.3939 N.3     1  UNL1       -0.2974
     26 C         140.8325  144.7233  161.5343 C.3     1  UNL1        0.0702
     27 H         142.5704  143.8755  160.8750 H       1  UNL1        0.1232
@<TRIPOS>BOND
     1    11    12    1
     2    12    13   ar
     3    13    14   ar
     4    14    15   ar
     5    15     1    1
     6     1     2   ar
     7     2     3   ar
     8     3     4   ar
     9     4     5   ar
    10     5     6   ar
    11     6     7   ar
    12     7     8   ar
    13     8     9   ar
    14     9    18    1
    15    18    20    1
    16    21    20    1
    17    21    22    1
    18    22    23    1
    19    23    24    1
    20    24    25    1
    21    25    26    1
    22     9    10   ar
    23    15    16   ar
    24    16    17   ar
    25    17    12   ar
    26    10     1   ar
    27     8     3   ar
    28    26    21    1
    29    18    19    1
    30    25    27    1
@<TRIPOS>MOLECULE
*****
 27 30 0 0 0
SMALL
GASTEIGER

@<TRIPOS>ATOM
      1 C         139.9501  140.1924  165.2542 C.ar    1  UNL1        0.0842
      2 C         138.8653  140.5911  164.2981 C.ar    1  UNL1        0.0383
      3 C         138.8277  140.0028  162.9187 C.ar    1  UNL1        0.0855
      4 N         137.7429  140.4015  161.9626 N.ar    1  UNL1       -0.2437
      5 C         137.7053  139.8132  160.5834 C.ar    1  UNL1        0.0988
      6 C         138.7526  138.8261  160.1602 C.ar    1  UNL1        0.0208
      7 C         139.8373  138.4274  161.1163 C.ar    1  UNL1        0.0059
      8 C         139.8749  139.0157  162.4956 C.ar    1  UNL1        0.0491
      9 C         140.9597  138.6170  163.4518 C.ar    1  UNL1        0.1298
     10 N         140.9973  139.2053  164.8311 N.ar    1  UNL1       -0.2308
     11 C         140.1005  142.5455  170.7715 C.3     1  UNL1        0.0310
     12 C         140.0629  141.9572  169.3921 C.ar    1  UNL1       -0.0218
     13 C         140.5433  142.7612  168.2205 C.ar    1  UNL1       -0.0042
     14 C         140.5057  142.1730  166.8412 C.ar    1  UNL1        0.0012
     15 C         139.9877  140.7807  166.6336 C.ar    1  UNL1        0.0177
     16 C         139.5073  139.9767  167.8052 C.ar    1  UNL1        0.0012
     17 C         139.5449  140.5649  169.1845 C.ar    1  UNL1       -0.0042
     18 N         142.0070  137.6300  163.0286 N.pl3   1  UNL1       -0.3180
     19 H         141.9562  136.6961  163.3363 H       1  UNL1        0.1482
     20 C         143.1315  138.0657  162.1368 C.3     1  UNL1        0.0895
     21 C         143.9552  139.2655  162.5001 C.3     1  UNL1        0.0353
     22 C         144.5428  139.3833  163.8751 C.3     1  UNL1        0.0045
     23 C         145.3665  140.5832  164.2385 C.3     1  UNL1        0.0172
     24 C         145.6025  141.6651  163.2268 C.3     1  UNL1        0.0686
     25 N         145.0149  141.5473  161.8516 N.3     1  UNL1       -0.2974
     26 C         144.1912  140.3475  161.4883 C.3     1  UNL1        0.0702
     27 H         145.7944  141.5793  161.1946 H       1  UNL1        0.1232
@<TRIPOS>BOND
     1    11    12    1
     2    12    13   ar
     3    13    14   ar
     4    14    15   ar
     5    15     1    1
     6     1     2   ar
     7     2     3   ar
     8     3     4   ar
     9     4     5   ar
    10     5     6   ar
    11     6     7   ar
    12     7     8   ar
    13     8     9   ar
    14     9    18    1
    15    18    20    1
    16    21    20    1
    17    21    22    1
    18    22    23    1
    19    23    24    1
    20    24    25    1
    21    25    26    1
    22     9    10   ar
    23    15    16   ar
    24    16    17   ar
    25    17    12   ar
    26    10     1   ar
    27     8     3   ar
    28    26    21    1
    29    18    19    1
    30    25    27    1
@<TRIPOS>MOLECULE
*****
 27 30 0 0 0
SMALL
GASTEIGER

@<TRIPOS>ATOM
      1 C         139.6794  141.9511  165.2523 C.ar    1  UNL1        0.0842
      2 C         140.4157  143.0104  164.4870 C.ar    1  UNL1        0.0383
      3 C         140.1486  143.2005  163.0232 C.ar    1  UNL1        0.0855
      4 N         140.8849  144.2598  162.2579 N.ar    1  UNL1       -0.2437
      5 C         140.6177  144.4499  160.7942 C.ar    1  UNL1        0.0988
      6 C         139.6143  143.5808  160.0958 C.ar    1  UNL1        0.0208
      7 C         138.8780  142.5215  160.8612 C.ar    1  UNL1        0.0059
      8 C         139.1451  142.3314  162.3249 C.ar    1  UNL1        0.0491
      9 C         138.4088  141.2721  163.0903 C.ar    1  UNL1        0.1298
     10 N         138.6760  141.0820  164.5540 N.ar    1  UNL1       -0.2308
     11 C         140.7479  141.1906  171.1073 C.3     1  UNL1        0.0310
     12 C         140.4808  141.3807  169.6435 C.ar    1  UNL1       -0.0218
     13 C         139.9929  140.2298  168.8145 C.ar    1  UNL1       -0.0042
     14 C         139.7257  140.4199  167.3508 C.ar    1  UNL1        0.0012
     15 C         139.9465  141.7609  166.7161 C.ar    1  UNL1        0.0177
     16 C         140.4345  142.9119  167.5451 C.ar    1  UNL1        0.0012
     17 C         140.7016  142.7217  169.0088 C.ar    1  UNL1       -0.0042
     18 N         137.4054  140.4029  162.3919 N.pl3   1  UNL1       -0.3180
     19 H         136.4971  140.7411  162.2188 H       1  UNL1        0.1482
     20 C         137.7857  139.0186  161.9574 C.3     1  UNL1        0.0895
     21 C         138.9387  138.3172  162.6121 C.3     1  UNL1        0.0353
     22 C         138.8721  137.9627  164.0680 C.3     1  UNL1        0.0045
     23 C         140.0251  137.2613  164.7227 C.3     1  UNL1        0.0172
     24 C         141.2447  136.9144  163.9215 C.3     1  UNL1        0.0686
     25 N         141.3114  137.2689  162.4654 N.3     1  UNL1       -0.2974
     26 C         140.1584  137.9703  161.8107 C.3     1  UNL1        0.0702
     27 H         141.4529  136.3965  161.9562 H       1  UNL1        0.1232
@<TRIPOS>BOND
     1    11    12    1
     2    12    13   ar
     3    13    14   ar
     4    14    15   ar
     5    15     1    1
     6     1     2   ar
     7     2     3   ar
     8     3     4   ar
     9     4     5   ar
    10     5     6   ar
    11     6     7   ar
    12     7     8   ar
    13     8     9   ar
    14     9    18    1
    15    18    20    1
    16    21    20    1
    17    21    22    1
    18    22    23    1
    19    23    24    1
    20    24    25    1
    21    25    26    1
    22     9    10   ar
    23    15    16   ar
    24    16    17   ar
    25    17    12   ar
    26    10     1   ar
    27     8     3   ar
    28    26    21    1
    29    18    19    1
    30    25    27    1
@<TRIPOS>MOLECULE
*****
 27 30 0 0 0
SMALL
GASTEIGER

@<TRIPOS>ATOM
      1 C         141.0121  142.4550  166.0474 C.ar    1  UNL1        0.0842
      2 C         140.8098  142.8168  167.4889 C.ar    1  UNL1        0.0383
      3 C         141.1674  141.8355  168.5657 C.ar    1  UNL1        0.0855
      4 N         140.9651  142.1973  170.0073 N.ar    1  UNL1       -0.2437
      5 C         141.3226  141.2161  171.0840 C.ar    1  UNL1        0.0988
      6 C         141.8824  139.8731  170.7192 C.ar    1  UNL1        0.0208
      7 C         142.0847  139.5114  169.2776 C.ar    1  UNL1        0.0059
      8 C         141.7272  140.4926  168.2009 C.ar    1  UNL1        0.0491
      9 C         141.9294  140.1309  166.7592 C.ar    1  UNL1        0.1298
     10 N         141.5719  141.1121  165.6825 N.ar    1  UNL1       -0.2308
     11 C         139.5821  146.3799  161.7403 C.3     1  UNL1        0.0310
     12 C         139.9396  145.3987  162.8171 C.ar    1  UNL1       -0.0218
     13 C         138.8573  144.6703  163.5575 C.ar    1  UNL1       -0.0042
     14 C         139.2148  143.6892  164.6343 C.ar    1  UNL1        0.0012
     15 C         140.6545  143.4363  164.9706 C.ar    1  UNL1        0.0177
     16 C         141.7368  144.1646  164.2301 C.ar    1  UNL1        0.0012
     17 C         141.3793  145.1458  163.1534 C.ar    1  UNL1       -0.0042
     18 N         142.4892  138.7880  166.3943 N.pl3   1  UNL1       -0.3180
     19 H         141.9813  137.9703  166.6009 H       1  UNL1        0.1482
     20 C         143.8229  138.6908  165.7148 C.3     1  UNL1        0.0895
     21 C         143.9711  139.1281  164.2876 C.3     1  UNL1        0.0353
     22 C         143.1105  138.5160  163.2224 C.3     1  UNL1        0.0045
     23 C         143.2587  138.9533  161.7952 C.3     1  UNL1        0.0172
     24 C         144.2675  140.0028  161.4333 C.3     1  UNL1        0.0686
     25 N         145.1281  140.6150  162.4985 N.3     1  UNL1       -0.2974
     26 C         144.9799  140.1777  163.9257 C.3     1  UNL1        0.0702
     27 H         144.9516  141.6194  162.4785 H       1  UNL1        0.1232
@<TRIPOS>BOND
     1    11    12    1
     2    12    13   ar
     3    13    14   ar
     4    14    15   ar
     5    15     1    1
     6     1     2   ar
     7     2     3   ar
     8     3     4   ar
     9     4     5   ar
    10     5     6   ar
    11     6     7   ar
    12     7     8   ar
    13     8     9   ar
    14     9    18    1
    15    18    20    1
    16    21    20    1
    17    21    22    1
    18    22    23    1
    19    23    24    1
    20    24    25    1
    21    25    26    1
    22     9    10   ar
    23    15    16   ar
    24    16    17   ar
    25    17    12   ar
    26    10     1   ar
    27     8     3   ar
    28    26    21    1
    29    18    19    1
    30    25    27    1
@<TRIPOS>MOLECULE
*****
 27 30 0 0 0
SMALL
GASTEIGER

@<TRIPOS>ATOM
      1 C         141.2254  139.1654  165.0374 C.ar    1  UNL1        0.0842
      2 C         142.5305  139.4202  164.3433 C.ar    1  UNL1        0.0383
      3 C         142.6781  139.1051  162.8842 C.ar    1  UNL1        0.0855
      4 N         143.9832  139.3598  162.1902 N.ar    1  UNL1       -0.2437
      5 C         144.1307  139.0447  160.7311 C.ar    1  UNL1        0.0988
      6 C         142.9731  138.4748  159.9661 C.ar    1  UNL1        0.0208
      7 C         141.6680  138.2201  160.6601 C.ar    1  UNL1        0.0059
      8 C         141.5205  138.5352  162.1192 C.ar    1  UNL1        0.0491
      9 C         140.2153  138.2805  162.8133 C.ar    1  UNL1        0.1298
     10 N         140.0678  138.5956  164.2723 N.ar    1  UNL1       -0.2308
     11 C         140.6350  140.4259  170.8737 C.3     1  UNL1        0.0310
     12 C         140.7826  140.1107  169.4146 C.ar    1  UNL1       -0.0218
     13 C         142.1235  139.7279  168.8619 C.ar    1  UNL1       -0.0042
     14 C         142.2711  139.4128  167.4028 C.ar    1  UNL1        0.0012
     15 C         141.0778  139.4806  166.4965 C.ar    1  UNL1        0.0177
     16 C         139.7370  139.8634  167.0492 C.ar    1  UNL1        0.0012
     17 C         139.5893  140.1785  168.5083 C.ar    1  UNL1       -0.0042
     18 N         139.0577  137.7107  162.0483 N.pl3   1  UNL1       -0.3180
     19 H         139.1189  136.8063  161.6642 H       1  UNL1        0.1482
     20 C         137.8070  138.5189  161.8683 C.3     1  UNL1        0.0895
     21 C         137.8730  140.0173  161.8873 C.3     1  UNL1        0.0353
     22 C         137.4865  140.7695  163.1261 C.3     1  UNL1        0.0045
     23 C         137.5526  142.2679  163.1451 C.3     1  UNL1        0.0172
     24 C         138.0051  143.0142  161.9251 C.3     1  UNL1        0.0686
     25 N         138.3916  142.2620  160.6862 N.3     1  UNL1       -0.2974
     26 C         138.3255  140.7636  160.6672 C.3     1  UNL1        0.0702
     27 H         139.3566  142.5169  160.4760 H       1  UNL1        0.1232
@<TRIPOS>BOND
     1    11    12    1
     2    12    13   ar
     3    13    14   ar
     4    14    15   ar
     5    15     1    1
     6     1     2   ar
     7     2     3   ar
     8     3     4   ar
     9     4     5   ar
    10     5     6   ar
    11     6     7   ar
    12     7     8   ar
    13     8     9   ar
    14     9    18    1
    15    18    20    1
    16    21    20    1
    17    21    22    1
    18    22    23    1
    19    23    24    1
    20    24    25    1
    21    25    26    1
    22     9    10   ar
    23    15    16   ar
    24    16    17   ar
    25    17    12   ar
    26    10     1   ar
    27     8     3   ar
    28    26    21    1
    29    18    19    1
    30    25    27    1
@<TRIPOS>MOLECULE
*****
 27 30 0 0 0
SMALL
GASTEIGER

@<TRIPOS>ATOM
      1 C         141.1643  142.4643  165.7394 C.ar    1  UNL1        0.0842
      2 C         140.6839  142.5970  167.1542 C.ar    1  UNL1        0.0383
      3 C         141.0913  141.5839  168.1827 C.ar    1  UNL1        0.0855
      4 N         140.6109  141.7165  169.5975 N.ar    1  UNL1       -0.2437
      5 C         141.0183  140.7035  170.6259 C.ar    1  UNL1        0.0988
      6 C         141.9062  139.5579  170.2396 C.ar    1  UNL1        0.0208
      7 C         142.3866  139.4252  168.8249 C.ar    1  UNL1        0.0059
      8 C         141.9792  140.4383  167.7964 C.ar    1  UNL1        0.0491
      9 C         142.4596  140.3057  166.3816 C.ar    1  UNL1        0.1298
     10 N         142.0522  141.3187  165.3531 N.ar    1  UNL1       -0.2308
     11 C         139.5346  146.5164  161.6254 C.3     1  UNL1        0.0310
     12 C         139.9420  145.5034  162.6540 C.ar    1  UNL1       -0.0218
     13 C         141.3948  145.2835  162.9557 C.ar    1  UNL1       -0.0042
     14 C         141.8022  144.2705  163.9842 C.ar    1  UNL1        0.0012
     15 C         140.7569  143.4774  164.7109 C.ar    1  UNL1        0.0177
     16 C         139.3041  143.6973  164.4092 C.ar    1  UNL1        0.0012
     17 C         138.8967  144.7103  163.3807 C.ar    1  UNL1       -0.0042
     18 N         143.3474  139.1600  165.9953 N.pl3   1  UNL1       -0.3180
     19 H         144.3259  139.2579  166.0426 H       1  UNL1        0.1482
     20 C         142.7445  137.8653  165.5370 C.3     1  UNL1        0.0895
     21 C         141.6970  137.8643  164.4633 C.3     1  UNL1        0.0353
     22 C         142.1022  137.9204  163.0201 C.3     1  UNL1        0.0045
     23 C         141.0547  137.9194  161.9464 C.3     1  UNL1        0.0172
     24 C         139.6021  137.8623  162.3159 C.3     1  UNL1        0.0686
     25 N         139.1968  137.8062  163.7591 N.3     1  UNL1       -0.2974
     26 C         140.2443  137.8072  164.8328 C.3     1  UNL1        0.0702
     27 H         138.6529  136.9517  163.8792 H       1  UNL1        0.1232
@<TRIPOS>BOND
     1    11    12    1
     2    12    13   ar
     3    13    14   ar
     4    14    15   ar
     5    15     1    1
     6     1     2   ar
     7     2     3   ar
     8     3     4   ar
     9     4     5   ar
    10     5     6   ar
    11     6     7   ar
    12     7     8   ar
    13     8     9   ar
    14     9    18    1
    15    18    20    1
    16    21    20    1
    17    21    22    1
    18    22    23    1
    19    23    24    1
    20    24    25    1
    21    25    26    1
    22     9    10   ar
    23    15    16   ar
    24    16    17   ar
    25    17    12   ar
    26    10     1   ar
    27     8     3   ar
    28    26    21    1
    29    18    19    1
    30    25    27    1
