@<TRIPOS>MOLECULE
*****
 38 42 0 0 0
SMALL
GASTEIGER

@<TRIPOS>ATOM
      1 C         141.0849  139.1342  157.7001 C.ar    1  UNL1        0.0104
      2 C         141.4551  137.7037  157.4420 C.ar    1  UNL1        0.0078
      3 C         142.7599  137.3745  156.7793 C.ar    1  UNL1        0.1095
      4 C         143.6945  138.4758  156.3748 C.ar    1  UNL1        0.2691
      5 O         144.9993  138.1466  155.7121 O.2     1  UNL1       -0.2665
      6 N         143.3242  139.9064  156.6328 N.ar    1  UNL1       -0.2733
      7 C         144.2588  141.0076  156.2283 C.ar    1  UNL1        0.0829
      8 C         143.8886  142.4381  156.4864 C.ar    1  UNL1        0.0191
      9 C         142.5838  142.7673  157.1490 C.ar    1  UNL1        0.0030
     10 C         141.6492  141.6660  157.5536 C.ar    1  UNL1        0.0174
     11 C         142.0195  140.2356  157.2955 C.ar    1  UNL1        0.0642
     12 C         143.1301  135.9440  156.5212 C.2     1  UNL1        0.2505
     13 O         143.4701  135.4965  155.1305 O.2     1  UNL1       -0.2700
     14 N         143.1602  134.9610  157.6538 N.am    1  UNL1       -0.3000
     15 H         142.9371  135.2547  158.5666 H       1  UNL1        0.1498
     16 C         143.5304  133.5306  157.3957 C.3     1  UNL1        0.0986
     17 C         144.7890  132.9638  157.9830 C.3     1  UNL1        0.0220
     18 C         145.1592  131.5334  157.7249 C.3     1  UNL1        0.0019
     19 C         144.2709  130.6695  156.8795 C.3     1  UNL1        0.0026
     20 C         143.0123  131.2362  156.2922 C.3     1  UNL1        0.0309
     21 C         142.6421  132.6667  156.5503 C.3     1  UNL1        0.1283
     22 O         141.3835  133.2334  155.9631 O.3     1  UNL1       -0.3828
     23 H         140.9299  132.5479  155.4481 H       1  UNL1        0.2104
     24 C         139.7801  139.4634  158.3628 C.3     1  UNL1        0.1007
     25 N         139.5290  139.6876  162.8502 N.pl3   1  UNL1       -0.3046
     26 C         139.5553  140.9475  162.0366 C.3     1  UNL1        0.1081
     27 C         139.6390  140.8728  160.5408 C.3     1  UNL1        0.0941
     28 N         139.6964  139.5381  159.8585 N.3     1  UNL1       -0.2659
     29 C         139.6700  138.2782  160.6721 C.3     1  UNL1        0.0941
     30 C         139.5863  138.3529  162.1680 C.3     1  UNL1        0.1081
     31 C         139.2779  139.9117  167.3375 C.ar    1  UNL1        0.0685
     32 C         138.4080  138.9491  166.5849 C.ar    1  UNL1        0.0115
     33 C         138.4917  138.8743  165.0890 C.ar    1  UNL1        0.0152
     34 C         139.4453  139.7623  164.3459 C.ar    1  UNL1        0.0480
     35 C         140.3152  140.7250  165.0987 C.ar    1  UNL1        0.0152
     36 C         140.2315  140.7997  166.5944 C.ar    1  UNL1        0.0115
     37 N         139.1105  140.0612  170.3292 N.1     1  UNL1       -0.1908
     38 C         139.1942  139.9865  168.8333 C.1     1  UNL1        0.1004
@<TRIPOS>BOND
     1    37    38    3
     2    38    31    1
     3    31    32   ar
     4    32    33   ar
     5    33    34   ar
     6    34    25    1
     7    25    26    1
     8    26    27    1
     9    27    28    1
    10    28    24    1
    11    24     1    1
    12     1     2   ar
    13     2     3   ar
    14     3    12    1
    15    12    13    2
    16    12    14   am
    17    16    14    1
    18    16    17    1
    19    17    18    1
    20    18    19    1
    21    19    20    1
    22    20    21    1
    23    21    22    1
    24     3     4   ar
    25     4     5    2
    26     4     6   ar
    27     6     7   ar
    28     7     8   ar
    29     8     9   ar
    30     9    10   ar
    31    10    11   ar
    32    28    29    1
    33    29    30    1
    34    34    35   ar
    35    35    36   ar
    36    36    31   ar
    37    30    25    1
    38    11     1   ar
    39    21    16    1
    40    11     6   ar
    41    14    15    1
    42    22    23    1
@<TRIPOS>MOLECULE
*****
 38 42 0 0 0
SMALL
GASTEIGER

@<TRIPOS>ATOM
      1 C         140.5451  140.0343  159.1803 C.ar    1  UNL1        0.0104
      2 C         140.4817  138.7413  158.4225 C.ar    1  UNL1        0.0078
      3 C         141.6563  138.2932  157.6043 C.ar    1  UNL1        0.1095
      4 C         142.8943  139.1379  157.5439 C.ar    1  UNL1        0.2691
      5 O         144.0689  138.6898  156.7257 O.2     1  UNL1       -0.2665
      6 N         142.9577  140.4310  158.3016 N.ar    1  UNL1       -0.2733
      7 C         144.1957  141.2758  158.2412 C.ar    1  UNL1        0.0829
      8 C         144.2590  142.5687  158.9989 C.ar    1  UNL1        0.0191
      9 C         143.0844  143.0169  159.8171 C.ar    1  UNL1        0.0030
     10 C         141.8465  142.1721  159.8776 C.ar    1  UNL1        0.0174
     11 C         141.7831  140.8791  159.1198 C.ar    1  UNL1        0.0642
     12 C         141.5929  137.0001  156.8466 C.2     1  UNL1        0.2505
     13 O         140.3408  136.6218  156.1123 O.2     1  UNL1       -0.2700
     14 N         142.7815  136.0855  156.8231 N.am    1  UNL1       -0.3000
     15 H         143.6033  136.3338  157.3051 H       1  UNL1        0.1498
     16 C         142.7181  134.7925  156.0654 C.3     1  UNL1        0.0986
     17 C         142.4547  134.8008  154.5887 C.3     1  UNL1        0.0220
     18 C         142.3912  133.5078  153.8309 C.3     1  UNL1        0.0019
     19 C         142.5911  132.2066  154.5498 C.3     1  UNL1        0.0026
     20 C         142.8545  132.1983  156.0265 C.3     1  UNL1        0.0309
     21 C         142.9179  133.4913  156.7843 C.3     1  UNL1        0.1283
     22 O         143.1813  133.4830  158.2609 O.3     1  UNL1       -0.3828
     23 H         143.2861  132.5681  158.5656 H       1  UNL1        0.2104
     24 C         139.3705  140.4824  159.9985 C.3     1  UNL1        0.1007
     25 N         139.8063  141.0431  164.4421 N.pl3   1  UNL1       -0.3046
     26 C         139.0484  142.0509  163.6297 C.3     1  UNL1        0.1081
     27 C         138.9031  141.8640  162.1485 C.3     1  UNL1        0.0941
     28 N         139.5158  140.6693  161.4796 N.3     1  UNL1       -0.2659
     29 C         140.2737  139.6615  162.2920 C.3     1  UNL1        0.0941
     30 C         140.4190  139.8484  163.7732 C.3     1  UNL1        0.1081
     31 C         140.2421  141.6037  168.8857 C.ar    1  UNL1        0.0685
     32 C         140.6170  142.7140  167.9493 C.ar    1  UNL1        0.0115
     33 C         140.4717  142.5271  166.4681 C.ar    1  UNL1        0.0152
     34 C         139.9516  141.2300  165.9232 C.ar    1  UNL1        0.0480
     35 C         139.5767  140.1197  166.8596 C.ar    1  UNL1        0.0152
     36 C         139.7220  140.3066  168.3408 C.ar    1  UNL1        0.0115
     37 N         140.5327  141.9775  171.8481 N.1     1  UNL1       -0.1908
     38 C         140.3874  141.7906  170.3668 C.1     1  UNL1        0.1004
@<TRIPOS>BOND
     1    37    38    3
     2    38    31    1
     3    31    32   ar
     4    32    33   ar
     5    33    34   ar
     6    34    25    1
     7    25    26    1
     8    26    27    1
     9    27    28    1
    10    28    24    1
    11    24     1    1
    12     1     2   ar
    13     2     3   ar
    14     3    12    1
    15    12    13    2
    16    12    14   am
    17    16    14    1
    18    16    17    1
    19    17    18    1
    20    18    19    1
    21    19    20    1
    22    20    21    1
    23    21    22    1
    24     3     4   ar
    25     4     5    2
    26     4     6   ar
    27     6     7   ar
    28     7     8   ar
    29     8     9   ar
    30     9    10   ar
    31    10    11   ar
    32    28    29    1
    33    29    30    1
    34    34    35   ar
    35    35    36   ar
    36    36    31   ar
    37    30    25    1
    38    11     1   ar
    39    21    16    1
    40    11     6   ar
    41    14    15    1
    42    22    23    1
@<TRIPOS>MOLECULE
*****
 38 42 0 0 0
SMALL
GASTEIGER

@<TRIPOS>ATOM
      1 C         142.8862  142.4795  158.9920 C.ar    1  UNL1        0.0104
      2 C         144.2033  142.8481  158.3762 C.ar    1  UNL1        0.0078
      3 C         144.9411  141.8523  157.5313 C.ar    1  UNL1        0.1095
      4 C         144.3619  140.4878  157.3022 C.ar    1  UNL1        0.2691
      5 O         145.0997  139.4920  156.4572 O.2     1  UNL1       -0.2665
      6 N         143.0447  140.1191  157.9180 N.ar    1  UNL1       -0.2733
      7 C         142.4654  138.7546  157.6889 C.ar    1  UNL1        0.0829
      8 C         141.1483  138.3859  158.3047 C.ar    1  UNL1        0.0191
      9 C         140.4105  139.3817  159.1497 C.ar    1  UNL1        0.0030
     10 C         140.9898  140.7462  159.3788 C.ar    1  UNL1        0.0174
     11 C         142.3068  141.1149  158.7629 C.ar    1  UNL1        0.0642
     12 C         146.2583  142.2210  156.9154 C.2     1  UNL1        0.2505
     13 O         147.2552  143.0213  157.7001 O.2     1  UNL1       -0.2700
     14 N         146.5784  141.7895  155.5150 N.am    1  UNL1       -0.3000
     15 H         145.9241  141.2643  155.0000 H       1  UNL1        0.1498
     16 C         147.8955  142.1583  154.8992 C.3     1  UNL1        0.0986
     17 C         149.1577  141.5073  155.3821 C.3     1  UNL1        0.0220
     18 C         150.4748  141.8761  154.7664 C.3     1  UNL1        0.0019
     19 C         150.5298  142.8958  153.6677 C.3     1  UNL1        0.0026
     20 C         149.2677  143.5467  153.1847 C.3     1  UNL1        0.0309
     21 C         147.9505  143.1780  153.8005 C.3     1  UNL1        0.1283
     22 O         146.6884  143.8290  153.3175 O.3     1  UNL1       -0.3828
     23 H         146.8994  144.4580  152.6099 H       1  UNL1        0.2104
     24 C         142.1483  143.4753  159.8370 C.3     1  UNL1        0.1007
     25 N         141.9415  142.9257  164.2985 N.pl3   1  UNL1       -0.3046
     26 C         143.2617  142.8359  163.5922 C.3     1  UNL1        0.1081
     27 C         143.3307  143.0191  162.1050 C.3     1  UNL1        0.0941
     28 N         142.0794  143.2921  161.3241 N.3     1  UNL1       -0.2659
     29 C         140.7591  143.3819  162.0304 C.3     1  UNL1        0.0941
     30 C         140.6902  143.1987  163.5176 C.3     1  UNL1        0.1081
     31 C         141.7346  142.3761  168.7600 C.ar    1  UNL1        0.0685
     32 C         140.4966  142.7276  167.9894 C.ar    1  UNL1        0.0115
     33 C         140.5655  142.9109  166.5022 C.ar    1  UNL1        0.0152
     34 C         141.8725  142.7425  165.7856 C.ar    1  UNL1        0.0480
     35 C         143.1105  142.3909  166.5562 C.ar    1  UNL1        0.0152
     36 C         143.0415  142.2078  168.0434 C.ar    1  UNL1        0.0115
     37 N         141.5966  142.0097  171.7343 N.1     1  UNL1       -0.1908
     38 C         141.6656  142.1929  170.2471 C.1     1  UNL1        0.1004
@<TRIPOS>BOND
     1    37    38    3
     2    38    31    1
     3    31    32   ar
     4    32    33   ar
     5    33    34   ar
     6    34    25    1
     7    25    26    1
     8    26    27    1
     9    27    28    1
    10    28    24    1
    11    24     1    1
    12     1     2   ar
    13     2     3   ar
    14     3    12    1
    15    12    13    2
    16    12    14   am
    17    16    14    1
    18    16    17    1
    19    17    18    1
    20    18    19    1
    21    19    20    1
    22    20    21    1
    23    21    22    1
    24     3     4   ar
    25     4     5    2
    26     4     6   ar
    27     6     7   ar
    28     7     8   ar
    29     8     9   ar
    30     9    10   ar
    31    10    11   ar
    32    28    29    1
    33    29    30    1
    34    34    35   ar
    35    35    36   ar
    36    36    31   ar
    37    30    25    1
    38    11     1   ar
    39    21    16    1
    40    11     6   ar
    41    14    15    1
    42    22    23    1
@<TRIPOS>MOLECULE
*****
 38 42 0 0 0
SMALL
GASTEIGER

@<TRIPOS>ATOM
      1 C         143.7721  140.6802  156.2176 C.ar    1  UNL1        0.0104
      2 C         143.4293  141.0484  157.6307 C.ar    1  UNL1        0.0078
      3 C         144.3680  141.9004  158.4325 C.ar    1  UNL1        0.1095
      4 C         145.6495  142.3843  157.8212 C.ar    1  UNL1        0.2691
      5 O         146.5881  143.2363  158.6230 O.2     1  UNL1       -0.2665
      6 N         145.9923  142.0161  156.4081 N.ar    1  UNL1       -0.2733
      7 C         147.2738  142.4999  155.7968 C.ar    1  UNL1        0.0829
      8 C         147.6166  142.1317  154.3837 C.ar    1  UNL1        0.0191
      9 C         146.6779  141.2797  153.5819 C.ar    1  UNL1        0.0030
     10 C         145.3964  140.7958  154.1931 C.ar    1  UNL1        0.0174
     11 C         145.0536  141.1640  155.6062 C.ar    1  UNL1        0.0642
     12 C         144.0251  142.2686  159.8457 C.2     1  UNL1        0.2505
     13 O         142.5903  142.3212  160.2799 O.2     1  UNL1       -0.2700
     14 N         145.1171  142.5841  160.8245 N.am    1  UNL1       -0.3000
     15 H         146.0588  142.5495  160.5395 H       1  UNL1        0.1498
     16 C         144.7742  142.9523  162.2376 C.3     1  UNL1        0.0986
     17 C         144.2069  144.3069  162.5431 C.3     1  UNL1        0.0220
     18 C         143.8640  144.6750  163.9562 C.3     1  UNL1        0.0019
     19 C         144.0884  143.6887  165.0638 C.3     1  UNL1        0.0026
     20 C         144.6556  142.3341  164.7583 C.3     1  UNL1        0.0309
     21 C         144.9985  141.9659  163.3451 C.3     1  UNL1        0.1283
     22 O         145.5658  140.6114  163.0396 O.3     1  UNL1       -0.3828
     23 H         145.6464  140.1018  163.8610 H       1  UNL1        0.2104
     24 C         142.8335  139.8281  155.4158 C.3     1  UNL1        0.1007
     25 N         142.8504  135.3584  155.9364 N.pl3   1  UNL1       -0.3046
     26 C         141.5787  136.1308  156.1266 C.3     1  UNL1        0.1081
     27 C         141.5730  137.6207  155.9531 C.3     1  UNL1        0.0941
     28 N         142.8391  138.3382  155.5893 N.3     1  UNL1       -0.2659
     29 C         144.1108  137.5658  155.3991 C.3     1  UNL1        0.0941
     30 C         144.1164  136.0758  155.5727 C.3     1  UNL1        0.1081
     31 C         142.8673  130.8886  156.4571 C.ar    1  UNL1        0.0685
     32 C         141.8587  131.5347  155.5542 C.ar    1  UNL1        0.0115
     33 C         141.8530  133.0246  155.3806 C.ar    1  UNL1        0.0152
     34 C         142.8560  133.8685  156.1100 C.ar    1  UNL1        0.0480
     35 C         143.8647  133.2224  157.0129 C.ar    1  UNL1        0.0152
     36 C         143.8703  131.7325  157.1864 C.ar    1  UNL1        0.0115
     37 N         142.8787  127.9088  156.8042 N.1     1  UNL1       -0.1908
     38 C         142.8730  129.3988  156.6306 C.1     1  UNL1        0.1004
@<TRIPOS>BOND
     1    37    38    3
     2    38    31    1
     3    31    32   ar
     4    32    33   ar
     5    33    34   ar
     6    34    25    1
     7    25    26    1
     8    26    27    1
     9    27    28    1
    10    28    24    1
    11    24     1    1
    12     1     2   ar
    13     2     3   ar
    14     3    12    1
    15    12    13    2
    16    12    14   am
    17    16    14    1
    18    16    17    1
    19    17    18    1
    20    18    19    1
    21    19    20    1
    22    20    21    1
    23    21    22    1
    24     3     4   ar
    25     4     5    2
    26     4     6   ar
    27     6     7   ar
    28     7     8   ar
    29     8     9   ar
    30     9    10   ar
    31    10    11   ar
    32    28    29    1
    33    29    30    1
    34    34    35   ar
    35    35    36   ar
    36    36    31   ar
    37    30    25    1
    38    11     1   ar
    39    21    16    1
    40    11     6   ar
    41    14    15    1
    42    22    23    1
@<TRIPOS>MOLECULE
*****
 38 42 0 0 0
SMALL
GASTEIGER

@<TRIPOS>ATOM
      1 C         142.9159  137.2334  156.1768 C.ar    1  UNL1        0.0104
      2 C         143.0939  135.8011  156.5850 C.ar    1  UNL1        0.0078
      3 C         142.8578  134.7030  155.5907 C.ar    1  UNL1        0.1095
      4 C         142.4438  135.0373  154.1883 C.ar    1  UNL1        0.2691
      5 O         142.2077  133.9393  153.1940 O.2     1  UNL1       -0.2665
      6 N         142.2658  136.4698  153.7801 N.ar    1  UNL1       -0.2733
      7 C         141.8518  136.8041  152.3777 C.ar    1  UNL1        0.0829
      8 C         141.6739  138.2364  151.9695 C.ar    1  UNL1        0.0191
      9 C         141.9099  139.3345  152.9638 C.ar    1  UNL1        0.0030
     10 C         142.3239  139.0002  154.3662 C.ar    1  UNL1        0.0174
     11 C         142.5019  137.5678  154.7743 C.ar    1  UNL1        0.0642
     12 C         143.0358  133.2706  155.9989 C.2     1  UNL1        0.2505
     13 O         141.8359  132.3919  156.1947 O.2     1  UNL1       -0.2700
     14 N         144.4135  132.7169  156.2113 N.am    1  UNL1       -0.3000
     15 H         145.2010  133.2936  156.0827 H       1  UNL1        0.1498
     16 C         144.5914  131.2845  156.6194 C.3     1  UNL1        0.0986
     17 C         144.8193  130.9382  158.0611 C.3     1  UNL1        0.0220
     18 C         144.9972  129.5059  158.4693 C.3     1  UNL1        0.0019
     19 C         144.9473  128.4198  157.4359 C.3     1  UNL1        0.0026
     20 C         144.7194  128.7660  155.9943 C.3     1  UNL1        0.0309
     21 C         144.5415  130.1984  155.5861 C.3     1  UNL1        0.1283
     22 O         144.3136  130.5447  154.1445 O.3     1  UNL1       -0.3828
     23 H         144.3095  129.7328  153.6137 H       1  UNL1        0.2104
     24 C         143.1520  138.3315  157.1711 C.3     1  UNL1        0.1007
     25 N         140.9738  138.3079  161.1087 N.pl3   1  UNL1       -0.3046
     26 C         142.3688  137.7636  161.0200 C.3     1  UNL1        0.1081
     27 C         143.0948  137.7714  159.7075 C.3     1  UNL1        0.0941
     28 N         142.4259  138.3236  158.4836 N.3     1  UNL1       -0.2659
     29 C         141.0310  138.8680  158.5724 C.3     1  UNL1        0.0941
     30 C         140.3050  138.8601  159.8850 C.3     1  UNL1        0.1081
     31 C         138.7957  138.2845  165.0464 C.ar    1  UNL1        0.0685
     32 C         140.0099  137.4246  164.8558 C.ar    1  UNL1        0.0115
     33 C         140.7360  137.4325  163.5432 C.ar    1  UNL1        0.0152
     34 C         140.2478  138.3001  162.4213 C.ar    1  UNL1        0.0480
     35 C         139.0335  139.1599  162.6118 C.ar    1  UNL1        0.0152
     36 C         138.3075  139.1521  163.9244 C.ar    1  UNL1        0.0115
     37 N         137.3435  138.2687  167.6715 N.1     1  UNL1       -0.1908
     38 C         138.0696  138.2766  166.3589 C.1     1  UNL1        0.1004
@<TRIPOS>BOND
     1    37    38    3
     2    38    31    1
     3    31    32   ar
     4    32    33   ar
     5    33    34   ar
     6    34    25    1
     7    25    26    1
     8    26    27    1
     9    27    28    1
    10    28    24    1
    11    24     1    1
    12     1     2   ar
    13     2     3   ar
    14     3    12    1
    15    12    13    2
    16    12    14   am
    17    16    14    1
    18    16    17    1
    19    17    18    1
    20    18    19    1
    21    19    20    1
    22    20    21    1
    23    21    22    1
    24     3     4   ar
    25     4     5    2
    26     4     6   ar
    27     6     7   ar
    28     7     8   ar
    29     8     9   ar
    30     9    10   ar
    31    10    11   ar
    32    28    29    1
    33    29    30    1
    34    34    35   ar
    35    35    36   ar
    36    36    31   ar
    37    30    25    1
    38    11     1   ar
    39    21    16    1
    40    11     6   ar
    41    14    15    1
    42    22    23    1
@<TRIPOS>MOLECULE
*****
 38 42 0 0 0
SMALL
GASTEIGER

@<TRIPOS>ATOM
      1 C         143.4949  138.4677  160.3470 C.ar    1  UNL1        0.0104
      2 C         142.9620  137.4768  159.3550 C.ar    1  UNL1        0.0078
      3 C         142.5509  137.9328  157.9864 C.ar    1  UNL1        0.1095
      4 C         142.6726  139.3796  157.6098 C.ar    1  UNL1        0.2691
      5 O         142.2615  139.8356  156.2412 O.2     1  UNL1       -0.2665
      6 N         143.2055  140.3706  158.6019 N.ar    1  UNL1       -0.2733
      7 C         143.3273  141.8174  158.2254 C.ar    1  UNL1        0.0829
      8 C         143.8602  142.8082  159.2174 C.ar    1  UNL1        0.0191
      9 C         144.2713  142.3523  160.5860 C.ar    1  UNL1        0.0030
     10 C         144.1496  140.9054  160.9626 C.ar    1  UNL1        0.0174
     11 C         143.6167  139.9146  159.9705 C.ar    1  UNL1        0.0642
     12 C         142.0180  136.9419  156.9943 C.2     1  UNL1        0.2505
     13 O         140.5750  136.9898  156.5875 O.2     1  UNL1       -0.2700
     14 N         142.9281  135.9030  156.4091 N.am    1  UNL1       -0.3000
     15 H         143.8751  135.8715  156.6761 H       1  UNL1        0.1498
     16 C         142.3951  134.9121  155.4171 C.3     1  UNL1        0.0986
     17 C         141.9909  133.5405  155.8702 C.3     1  UNL1        0.0220
     18 C         141.4580  132.5496  154.8782 C.3     1  UNL1        0.0019
     19 C         141.3293  132.9303  153.4331 C.3     1  UNL1        0.0026
     20 C         141.7334  134.3019  152.9799 C.3     1  UNL1        0.0309
     21 C         142.2664  135.2928  153.9720 C.3     1  UNL1        0.1283
     22 O         142.6705  136.6644  153.5188 O.3     1  UNL1       -0.3828
     23 H         142.5247  136.7453  152.5632 H       1  UNL1        0.2104
     24 C         143.9060  138.0117  161.7156 C.3     1  UNL1        0.1007
     25 N         142.1270  139.9552  165.3637 N.pl3   1  UNL1       -0.3046
     26 C         143.6147  139.8058  165.2436 C.3     1  UNL1        0.1081
     27 C         144.2078  139.1580  164.0276 C.3     1  UNL1        0.0941
     28 N         143.3130  138.6595  162.9316 N.3     1  UNL1       -0.2659
     29 C         141.8253  138.8089  163.0517 C.3     1  UNL1        0.0941
     30 C         141.2323  139.4567  164.2678 C.3     1  UNL1        0.1081
     31 C         140.3480  141.8987  169.0116 C.ar    1  UNL1        0.0685
     32 C         139.7405  140.6436  168.4589 C.ar    1  UNL1        0.0115
     33 C         140.3335  139.9957  167.2429 C.ar    1  UNL1        0.0152
     34 C         141.5340  140.6030  166.5796 C.ar    1  UNL1        0.0480
     35 C         142.1416  141.8582  167.1324 C.ar    1  UNL1        0.0152
     36 C         141.5486  142.5060  168.3484 C.ar    1  UNL1        0.0115
     37 N         139.1620  143.1943  171.4437 N.1     1  UNL1       -0.1908
     38 C         139.7550  142.5465  170.2276 C.1     1  UNL1        0.1004
@<TRIPOS>BOND
     1    37    38    3
     2    38    31    1
     3    31    32   ar
     4    32    33   ar
     5    33    34   ar
     6    34    25    1
     7    25    26    1
     8    26    27    1
     9    27    28    1
    10    28    24    1
    11    24     1    1
    12     1     2   ar
    13     2     3   ar
    14     3    12    1
    15    12    13    2
    16    12    14   am
    17    16    14    1
    18    16    17    1
    19    17    18    1
    20    18    19    1
    21    19    20    1
    22    20    21    1
    23    21    22    1
    24     3     4   ar
    25     4     5    2
    26     4     6   ar
    27     6     7   ar
    28     7     8   ar
    29     8     9   ar
    30     9    10   ar
    31    10    11   ar
    32    28    29    1
    33    29    30    1
    34    34    35   ar
    35    35    36   ar
    36    36    31   ar
    37    30    25    1
    38    11     1   ar
    39    21    16    1
    40    11     6   ar
    41    14    15    1
    42    22    23    1
@<TRIPOS>MOLECULE
*****
 38 42 0 0 0
SMALL
GASTEIGER

@<TRIPOS>ATOM
      1 C         139.8485  142.1912  159.1118 C.ar    1  UNL1        0.0104
      2 C         140.2197  140.7658  158.8284 C.ar    1  UNL1        0.0078
      3 C         141.3071  140.4557  157.8427 C.ar    1  UNL1        0.1095
      4 C         142.0232  141.5711  157.1405 C.ar    1  UNL1        0.2691
      5 O         143.1106  141.2610  156.1549 O.2     1  UNL1       -0.2665
      6 N         141.6519  142.9965  157.4239 N.ar    1  UNL1       -0.2733
      7 C         142.3680  144.1119  156.7216 C.ar    1  UNL1        0.0829
      8 C         141.9968  145.5373  157.0050 C.ar    1  UNL1        0.0191
      9 C         140.9094  145.8473  157.9907 C.ar    1  UNL1        0.0030
     10 C         140.1933  144.7320  158.6929 C.ar    1  UNL1        0.0174
     11 C         140.5646  143.3066  158.4095 C.ar    1  UNL1        0.0642
     12 C         141.6783  139.0302  157.5594 C.2     1  UNL1        0.2505
     13 O         141.8696  138.0656  158.6921 O.2     1  UNL1       -0.2700
     14 N         141.8584  138.5694  156.1433 N.am    1  UNL1       -0.3000
     15 H         141.7329  139.2025  155.3999 H       1  UNL1        0.1498
     16 C         142.2296  137.1440  155.8600 C.3     1  UNL1        0.0986
     17 C         143.6703  136.7648  155.6848 C.3     1  UNL1        0.0220
     18 C         144.0415  135.3393  155.4015 C.3     1  UNL1        0.0019
     19 C         142.9721  134.2931  155.2934 C.3     1  UNL1        0.0026
     20 C         141.5315  134.6722  155.4685 C.3     1  UNL1        0.0309
     21 C         141.1602  136.0977  155.7519 C.3     1  UNL1        0.1283
     22 O         139.7196  136.4769  155.9271 O.3     1  UNL1       -0.3828
     23 H         139.1633  135.6885  155.8270 H       1  UNL1        0.2104
     24 C         138.7611  142.5012  160.0974 C.3     1  UNL1        0.1007
     25 N         139.4961  141.9574  164.5036 N.pl3   1  UNL1       -0.3046
     26 C         140.5874  142.4864  163.6208 C.3     1  UNL1        0.1081
     27 C         140.3424  142.6677  162.1521 C.3     1  UNL1        0.0941
     28 N         139.0061  142.3200  161.5661 N.3     1  UNL1       -0.2659
     29 C         137.9148  141.7910  162.4489 C.3     1  UNL1        0.0941
     30 C         138.1598  141.6097  163.9176 C.3     1  UNL1        0.1081
     31 C         140.2311  141.4135  168.9097 C.ar    1  UNL1        0.0685
     32 C         140.5636  142.7186  168.2494 C.ar    1  UNL1        0.0115
     33 C         140.3186  142.8999  166.7806 C.ar    1  UNL1        0.0152
     34 C         139.7411  141.7761  165.9722 C.ar    1  UNL1        0.0480
     35 C         139.4086  140.4709  166.6326 C.ar    1  UNL1        0.0152
     36 C         139.6535  140.2896  168.1013 C.ar    1  UNL1        0.0115
     37 N         140.7210  141.0509  171.8471 N.1     1  UNL1       -0.1908
     38 C         140.4760  141.2322  170.3784 C.1     1  UNL1        0.1004
@<TRIPOS>BOND
     1    37    38    3
     2    38    31    1
     3    31    32   ar
     4    32    33   ar
     5    33    34   ar
     6    34    25    1
     7    25    26    1
     8    26    27    1
     9    27    28    1
    10    28    24    1
    11    24     1    1
    12     1     2   ar
    13     2     3   ar
    14     3    12    1
    15    12    13    2
    16    12    14   am
    17    16    14    1
    18    16    17    1
    19    17    18    1
    20    18    19    1
    21    19    20    1
    22    20    21    1
    23    21    22    1
    24     3     4   ar
    25     4     5    2
    26     4     6   ar
    27     6     7   ar
    28     7     8   ar
    29     8     9   ar
    30     9    10   ar
    31    10    11   ar
    32    28    29    1
    33    29    30    1
    34    34    35   ar
    35    35    36   ar
    36    36    31   ar
    37    30    25    1
    38    11     1   ar
    39    21    16    1
    40    11     6   ar
    41    14    15    1
    42    22    23    1
@<TRIPOS>MOLECULE
*****
 38 42 0 0 0
SMALL
GASTEIGER

@<TRIPOS>ATOM
      1 C         142.2268  139.1020  158.2122 C.ar    1  UNL1        0.0104
      2 C         142.9374  137.8611  157.7593 C.ar    1  UNL1        0.0078
      3 C         142.3206  136.9841  156.7102 C.ar    1  UNL1        0.1095
      4 C         140.9931  137.3481  156.1141 C.ar    1  UNL1        0.2691
      5 O         140.3763  136.4711  155.0651 O.2     1  UNL1       -0.2665
      6 N         140.2824  138.5890  156.5670 N.ar    1  UNL1       -0.2733
      7 C         138.9550  138.9529  155.9709 C.ar    1  UNL1        0.0829
      8 C         138.2444  140.1938  156.4238 C.ar    1  UNL1        0.0191
      9 C         138.8612  141.0708  157.4729 C.ar    1  UNL1        0.0030
     10 C         140.1886  140.7068  158.0690 C.ar    1  UNL1        0.0174
     11 C         140.8993  139.4660  157.6161 C.ar    1  UNL1        0.0642
     12 C         143.0313  135.7432  156.2573 C.2     1  UNL1        0.2505
     13 O         144.3801  135.8457  155.6092 O.2     1  UNL1       -0.2700
     14 N         142.3931  134.3999  156.4526 N.am    1  UNL1       -0.3000
     15 H         141.5078  134.3326  156.8780 H       1  UNL1        0.1498
     16 C         143.1038  133.1590  155.9996 C.3     1  UNL1        0.0986
     17 C         142.7571  132.5354  154.6802 C.3     1  UNL1        0.0220
     18 C         143.4678  131.2945  154.2273 C.3     1  UNL1        0.0019
     19 C         144.5252  130.6773  155.0938 C.3     1  UNL1        0.0026
     20 C         144.8719  131.3008  156.4132 C.3     1  UNL1        0.0309
     21 C         144.1612  132.5417  156.8661 C.3     1  UNL1        0.1283
     22 O         144.5080  133.1653  158.1855 O.3     1  UNL1       -0.3828
     23 H         145.2051  132.6457  158.6155 H       1  UNL1        0.2104
     24 C         142.8436  139.9789  159.2612 C.3     1  UNL1        0.1007
     25 N         141.2040  139.9679  163.4519 N.pl3   1  UNL1       -0.3046
     26 C         141.5247  141.2677  162.7754 C.3     1  UNL1        0.1081
     27 C         142.0712  141.2714  161.3785 C.3     1  UNL1        0.0941
     28 N         142.2971  139.9752  160.6581 N.3     1  UNL1       -0.2659
     29 C         141.9763  138.6754  161.3345 C.3     1  UNL1        0.0941
     30 C         141.4298  138.6718  162.7315 C.3     1  UNL1        0.1081
     31 C         139.5643  139.9568  167.6425 C.ar    1  UNL1        0.0685
     32 C         140.9960  140.3317  167.3983 C.ar    1  UNL1        0.0115
     33 C         141.5426  140.3354  166.0014 C.ar    1  UNL1        0.0152
     34 C         140.6574  139.9642  164.8487 C.ar    1  UNL1        0.0480
     35 C         139.2257  139.5894  165.0929 C.ar    1  UNL1        0.0152
     36 C         138.6791  139.5857  166.4898 C.ar    1  UNL1        0.0115
     37 N         138.4712  139.9494  170.4362 N.1     1  UNL1       -0.1908
     38 C         139.0178  139.9531  169.0393 C.1     1  UNL1        0.1004
@<TRIPOS>BOND
     1    37    38    3
     2    38    31    1
     3    31    32   ar
     4    32    33   ar
     5    33    34   ar
     6    34    25    1
     7    25    26    1
     8    26    27    1
     9    27    28    1
    10    28    24    1
    11    24     1    1
    12     1     2   ar
    13     2     3   ar
    14     3    12    1
    15    12    13    2
    16    12    14   am
    17    16    14    1
    18    16    17    1
    19    17    18    1
    20    18    19    1
    21    19    20    1
    22    20    21    1
    23    21    22    1
    24     3     4   ar
    25     4     5    2
    26     4     6   ar
    27     6     7   ar
    28     7     8   ar
    29     8     9   ar
    30     9    10   ar
    31    10    11   ar
    32    28    29    1
    33    29    30    1
    34    34    35   ar
    35    35    36   ar
    36    36    31   ar
    37    30    25    1
    38    11     1   ar
    39    21    16    1
    40    11     6   ar
    41    14    15    1
    42    22    23    1
@<TRIPOS>MOLECULE
*****
 38 42 0 0 0
SMALL
GASTEIGER

@<TRIPOS>ATOM
      1 C         141.6667  144.4532  155.9112 C.ar    1  UNL1        0.0104
      2 C         142.0113  143.8610  157.2455 C.ar    1  UNL1        0.0078
      3 C         141.4246  144.4417  158.4979 C.ar    1  UNL1        0.1095
      4 C         140.4933  145.6147  158.4160 C.ar    1  UNL1        0.2691
      5 O         139.9066  146.1955  159.6684 O.2     1  UNL1       -0.2665
      6 N         140.1487  146.2071  157.0816 N.ar    1  UNL1       -0.2733
      7 C         139.2174  147.3801  156.9997 C.ar    1  UNL1        0.0829
      8 C         138.8728  147.9723  155.6654 C.ar    1  UNL1        0.0191
      9 C         139.4595  147.3916  154.4130 C.ar    1  UNL1        0.0030
     10 C         140.3908  146.2186  154.4949 C.ar    1  UNL1        0.0174
     11 C         140.7354  145.6263  155.8292 C.ar    1  UNL1        0.0642
     12 C         141.7692  143.8494  159.8323 C.2     1  UNL1        0.2505
     13 O         141.7119  142.3637  160.0307 O.2     1  UNL1       -0.2700
     14 N         142.1711  144.7428  160.9682 N.am    1  UNL1       -0.3000
     15 H         142.2087  145.7179  160.8379 H       1  UNL1        0.1498
     16 C         142.5157  144.1505  162.3024 C.3     1  UNL1        0.0986
     17 C         141.4860  144.1072  163.3923 C.3     1  UNL1        0.0220
     18 C         141.8306  143.5148  164.7266 C.3     1  UNL1        0.0019
     19 C         143.2049  142.9658  164.9711 C.3     1  UNL1        0.0026
     20 C         144.2346  143.0091  163.8813 C.3     1  UNL1        0.0309
     21 C         143.8901  143.6014  162.5469 C.3     1  UNL1        0.1283
     22 O         144.9198  143.6447  161.4571 O.3     1  UNL1       -0.3828
     23 H         145.7468  143.2523  161.7779 H       1  UNL1        0.2104
     24 C         142.2534  143.8725  154.6588 C.3     1  UNL1        0.1007
     25 N         146.6821  143.1231  154.3860 N.pl3   1  UNL1       -0.3046
     26 C         146.0793  144.3137  153.7011 C.3     1  UNL1        0.1081
     27 C         144.6031  144.5635  153.7920 C.3     1  UNL1        0.0941
     28 N         143.7296  143.6227  154.5679 N.3     1  UNL1       -0.2659
     29 C         144.3324  142.4321  155.2528 C.3     1  UNL1        0.0941
     30 C         145.8087  142.1823  155.1619 C.3     1  UNL1        0.1081
     31 C         151.1109  142.3737  154.1133 C.ar    1  UNL1        0.0685
     32 C         150.3007  141.7006  155.1813 C.ar    1  UNL1        0.0115
     33 C         148.8244  141.9504  155.2722 C.ar    1  UNL1        0.0152
     34 C         148.1583  142.8733  154.2951 C.ar    1  UNL1        0.0480
     35 C         148.9686  143.5463  153.2271 C.ar    1  UNL1        0.0152
     36 C         150.4448  143.2965  153.1362 C.ar    1  UNL1        0.0115
     37 N         154.0634  141.8740  153.9314 N.1     1  UNL1       -0.1908
     38 C         152.5871  142.1238  154.0224 C.1     1  UNL1        0.1004
@<TRIPOS>BOND
     1    37    38    3
     2    38    31    1
     3    31    32   ar
     4    32    33   ar
     5    33    34   ar
     6    34    25    1
     7    25    26    1
     8    26    27    1
     9    27    28    1
    10    28    24    1
    11    24     1    1
    12     1     2   ar
    13     2     3   ar
    14     3    12    1
    15    12    13    2
    16    12    14   am
    17    16    14    1
    18    16    17    1
    19    17    18    1
    20    18    19    1
    21    19    20    1
    22    20    21    1
    23    21    22    1
    24     3     4   ar
    25     4     5    2
    26     4     6   ar
    27     6     7   ar
    28     7     8   ar
    29     8     9   ar
    30     9    10   ar
    31    10    11   ar
    32    28    29    1
    33    29    30    1
    34    34    35   ar
    35    35    36   ar
    36    36    31   ar
    37    30    25    1
    38    11     1   ar
    39    21    16    1
    40    11     6   ar
    41    14    15    1
    42    22    23    1
