@<TRIPOS>MOLECULE
*****
 30 33 0 0 0
SMALL
GASTEIGER

@<TRIPOS>ATOM
      1 C         139.9512  142.7510  161.0674 C.ar    1  UNL1        0.0223
      2 C         139.1242  141.5844  160.6145 C.ar    1  UNL1        0.0989
      3 N         138.6236  140.5862  161.6159 N.ar    1  UNL1       -0.2437
      4 C         138.9500  140.7545  163.0703 C.ar    1  UNL1        0.0844
      5 C         138.3558  139.6525  163.8964 C.ar    1  UNL1        0.0192
      6 C         138.4417  139.4449  165.3795 C.ar    1  UNL1        0.0016
      7 C         139.1432  140.2881  166.4027 C.ar    1  UNL1        0.0032
      8 C         138.9811  139.7230  167.7828 C.ar    1  UNL1        0.0014
      9 C         139.6077  140.4170  168.9556 C.ar    1  UNL1        0.0159
     10 C         140.3964  141.6759  168.7485 C.ar    1  UNL1        0.0659
     11 C         140.5585  142.2410  167.3686 C.ar    1  UNL1        0.0191
     12 C         139.9319  141.5470  166.1956 C.ar    1  UNL1        0.0403
     13 C         140.2140  142.2738  164.9141 C.ar    1  UNL1        0.1970
     14 O         141.0426  143.5177  165.0402 O.2     1  UNL1       -0.2865
     15 C         139.7770  141.9211  163.5232 C.ar    1  UNL1        0.0566
     16 C         140.2776  142.9193  162.5218 C.ar    1  UNL1        0.0063
     17 C         140.4018  145.7008  156.7112 C.3     1  UNL1        0.1538
     18 N         140.6589  145.1052  158.0636 N.ar    1  UNL1       -0.2473
     19 C         139.8348  144.0443  158.7310 C.ar    1  UNL1        0.0967
     20 C         140.4518  143.7493  160.0660 C.ar    1  UNL1        0.0411
     21 C         141.6573  144.6278  160.2237 C.ar    1  UNL1        0.1217
     22 N         141.7853  145.4658  158.9863 N.ar    1  UNL1       -0.1676
     23 N         141.0231  142.3700  169.9215 N.pl3   1  UNL1       -0.2056
     24 H         141.0210  143.3533  169.9704 H       1  UNL1        0.1748
     25 S         141.6529  141.5658  171.0199 S.O2    1  UNL1        0.1068
     26 N         142.2827  140.7615  172.1184 N.3     1  UNL1       -0.1906
     27 O         142.7173  141.1019  170.0702 O.2     1  UNL1       -0.1383
     28 O         140.5885  142.0296  171.9697 O.2     1  UNL1       -0.1383
     29 H         143.1078  140.2819  171.7585 H       1  UNL1        0.1456
     30 H         141.6129  140.0738  172.4631 H       1  UNL1        0.1456
@<TRIPOS>BOND
     1    17    18    1
     2    18    19   ar
     3    19    20   ar
     4    20     1    1
     5     1     2   ar
     6     2     3   ar
     7     3     4   ar
     8     4     5   ar
     9     5     6   ar
    10     6     7   ar
    11     7     8   ar
    12     8     9   ar
    13     9    10   ar
    14    10    23    1
    15    23    25    1
    16    25    26    1
    17    25    27    2
    18    25    28    2
    19    10    11   ar
    20    11    12   ar
    21    12    13   ar
    22    13    14    2
    23    13    15   ar
    24    15    16   ar
    25    20    21   ar
    26    21    22   ar
    27    22    18   ar
    28    16     1   ar
    29    15     4   ar
    30    12     7   ar
    31    23    24    1
    32    26    29    1
    33    26    30    1
@<TRIPOS>MOLECULE
*****
 30 33 0 0 0
SMALL
GASTEIGER

@<TRIPOS>ATOM
      1 C         141.0629  138.9315  161.9643 C.ar    1  UNL1        0.0223
      2 C         139.6111  138.5768  161.8362 C.ar    1  UNL1        0.0989
      3 N         138.7181  138.6258  163.0404 N.ar    1  UNL1       -0.2437
      4 C         139.2768  139.0294  164.3726 C.ar    1  UNL1        0.0844
      5 C         138.2207  139.0125  165.4377 C.ar    1  UNL1        0.0192
      6 C         138.3556  139.3462  166.8939 C.ar    1  UNL1        0.0016
      7 C         139.5799  139.7790  167.6447 C.ar    1  UNL1        0.0032
      8 C         139.2789  140.0130  169.0955 C.ar    1  UNL1        0.0014
      9 C         140.3697  140.4532  170.0262 C.ar    1  UNL1        0.0159
     10 C         141.7615  140.6593  169.5062 C.ar    1  UNL1        0.0659
     11 C         142.0625  140.4253  168.0555 C.ar    1  UNL1        0.0191
     12 C         140.9717  139.9851  167.1247 C.ar    1  UNL1        0.0403
     13 C         141.4830  139.8093  165.7255 C.ar    1  UNL1        0.1970
     14 O         142.9413  140.0969  165.5246 O.2     1  UNL1       -0.2865
     15 C         140.7286  139.3840  164.5007 C.ar    1  UNL1        0.0566
     16 C         141.6217  139.3350  163.2966 C.ar    1  UNL1        0.0063
     17 C         142.8100  138.2114  157.0337 C.3     1  UNL1        0.1538
     18 N         142.7590  138.5515  158.4938 N.ar    1  UNL1       -0.2473
     19 C         141.5566  138.4401  159.3836 C.ar    1  UNL1        0.0967
     20 C         141.9560  138.8825  160.7601 C.ar    1  UNL1        0.0411
     21 C         143.4053  139.2673  160.7211 C.ar    1  UNL1        0.1217
     22 N         143.9016  139.0628  159.3204 N.ar    1  UNL1       -0.1676
     23 N         142.8525  141.0995  170.4370 N.pl3   1  UNL1       -0.2056
     24 H         143.4593  140.4337  170.8340 H       1  UNL1        0.1748
     25 S         143.0187  142.5542  170.7627 S.O2    1  UNL1        0.1068
     26 N         143.1850  144.0090  171.0885 N.3     1  UNL1       -0.1906
     27 O         141.9574  142.4397  171.8165 O.2     1  UNL1       -0.1383
     28 O         144.0801  142.6688  169.7089 O.2     1  UNL1       -0.1383
     29 H         142.5422  144.2652  171.8379 H       1  UNL1        0.1456
     30 H         142.9817  144.5683  170.2601 H       1  UNL1        0.1456
@<TRIPOS>BOND
     1    17    18    1
     2    18    19   ar
     3    19    20   ar
     4    20     1    1
     5     1     2   ar
     6     2     3   ar
     7     3     4   ar
     8     4     5   ar
     9     5     6   ar
    10     6     7   ar
    11     7     8   ar
    12     8     9   ar
    13     9    10   ar
    14    10    23    1
    15    23    25    1
    16    25    26    1
    17    25    27    2
    18    25    28    2
    19    10    11   ar
    20    11    12   ar
    21    12    13   ar
    22    13    14    2
    23    13    15   ar
    24    15    16   ar
    25    20    21   ar
    26    21    22   ar
    27    22    18   ar
    28    16     1   ar
    29    15     4   ar
    30    12     7   ar
    31    23    24    1
    32    26    29    1
    33    26    30    1
@<TRIPOS>MOLECULE
*****
 30 33 0 0 0
SMALL
GASTEIGER

@<TRIPOS>ATOM
      1 C         141.7102  139.4797  161.1080 C.ar    1  UNL1        0.0223
      2 C         140.6476  138.4658  160.8034 C.ar    1  UNL1        0.0989
      3 N         139.6862  138.0422  161.8740 N.ar    1  UNL1       -0.2437
      4 C         139.7874  138.6326  163.2493 C.ar    1  UNL1        0.0844
      5 C         138.7366  138.0757  164.1634 C.ar    1  UNL1        0.0192
      6 C         138.4888  138.3952  165.6079 C.ar    1  UNL1        0.0016
      7 C         139.2307  139.3505  166.4950 C.ar    1  UNL1        0.0032
      8 C         138.6560  139.3707  167.8804 C.ar    1  UNL1        0.0014
      9 C         139.2542  140.2627  168.9275 C.ar    1  UNL1        0.0159
     10 C         140.4271  141.1344  168.5893 C.ar    1  UNL1        0.0659
     11 C         141.0018  141.1142  167.2039 C.ar    1  UNL1        0.0191
     12 C         140.4036  140.2222  166.1567 C.ar    1  UNL1        0.0403
     13 C         141.1243  140.3540  164.8477 C.ar    1  UNL1        0.1970
     14 O         142.2707  141.3210  164.8305 O.2     1  UNL1       -0.2865
     15 C         140.8500  139.6465  163.5539 C.ar    1  UNL1        0.0566
     16 C         141.8114  140.0701  162.4832 C.ar    1  UNL1        0.0063
     17 C         144.9918  142.3939  158.1721 C.3     1  UNL1        0.1538
     18 N         144.1800  141.2429  158.6879 N.ar    1  UNL1       -0.2473
     19 C         143.2835  141.2649  159.8903 C.ar    1  UNL1        0.0967
     20 C         142.6716  139.9033  160.0374 C.ar    1  UNL1        0.0411
     21 C         143.1900  139.0397  158.9259 C.ar    1  UNL1        0.1217
     22 N         144.1222  139.8675  158.0918 N.ar    1  UNL1       -0.1676
     23 N         141.0254  142.0265  169.6364 N.pl3   1  UNL1       -0.2056
     24 H         141.0112  143.0036  169.5173 H       1  UNL1        0.1748
     25 S         141.6452  141.4296  170.8650 S.O2    1  UNL1        0.1068
     26 N         142.2650  140.8327  172.0937 N.3     1  UNL1       -0.1906
     27 O         142.7058  140.7896  170.0192 O.2     1  UNL1       -0.1383
     28 O         140.5845  142.0696  171.7109 O.2     1  UNL1       -0.1383
     29 H         143.0855  140.2872  171.8299 H       1  UNL1        0.1456
     30 H         141.5876  140.2261  172.5558 H       1  UNL1        0.1456
@<TRIPOS>BOND
     1    17    18    1
     2    18    19   ar
     3    19    20   ar
     4    20     1    1
     5     1     2   ar
     6     2     3   ar
     7     3     4   ar
     8     4     5   ar
     9     5     6   ar
    10     6     7   ar
    11     7     8   ar
    12     8     9   ar
    13     9    10   ar
    14    10    23    1
    15    23    25    1
    16    25    26    1
    17    25    27    2
    18    25    28    2
    19    10    11   ar
    20    11    12   ar
    21    12    13   ar
    22    13    14    2
    23    13    15   ar
    24    15    16   ar
    25    20    21   ar
    26    21    22   ar
    27    22    18   ar
    28    16     1   ar
    29    15     4   ar
    30    12     7   ar
    31    23    24    1
    32    26    29    1
    33    26    30    1
@<TRIPOS>MOLECULE
*****
 30 33 0 0 0
SMALL
GASTEIGER

@<TRIPOS>ATOM
      1 C         142.3729  140.2108  160.0949 C.ar    1  UNL1        0.0223
      2 C         141.5557  139.1385  159.4376 C.ar    1  UNL1        0.0989
      3 N         140.5143  138.4003  160.2252 N.ar    1  UNL1       -0.2437
      4 C         140.2901  138.7344  161.6703 C.ar    1  UNL1        0.0844
      5 C         139.2093  137.8834  162.2682 C.ar    1  UNL1        0.0192
      6 C         138.6787  137.8945  163.6713 C.ar    1  UNL1        0.0016
      7 C         139.0981  138.7594  164.8228 C.ar    1  UNL1        0.0032
      8 C         138.3083  138.4466  166.0591 C.ar    1  UNL1        0.0014
      9 C         138.5719  139.2011  167.3284 C.ar    1  UNL1        0.0159
     10 C         139.6253  140.2685  167.3613 C.ar    1  UNL1        0.0659
     11 C         140.4150  140.5814  166.1251 C.ar    1  UNL1        0.0191
     12 C         140.1514  139.8268  164.8557 C.ar    1  UNL1        0.0403
     13 C         141.0457  140.2929  163.7453 C.ar    1  UNL1        0.1970
     14 O         142.0050  141.3903  164.0994 O.2     1  UNL1       -0.2865
     15 C         141.1074  139.8067  162.3276 C.ar    1  UNL1        0.0566
     16 C         142.1488  140.5449  161.5400 C.ar    1  UNL1        0.0063
     17 C         145.8861  141.4746  156.3611 C.3     1  UNL1        0.1538
     18 N         145.0292  141.5300  157.5910 N.ar    1  UNL1       -0.2473
     19 C         144.0463  140.4848  158.0285 C.ar    1  UNL1        0.0967
     20 C         143.4144  140.9491  159.3073 C.ar    1  UNL1        0.0411
     21 C         144.0067  142.2813  159.6600 C.ar    1  UNL1        0.1217
     22 N         145.0048  142.6403  158.5993 N.ar    1  UNL1       -0.1676
     23 N         139.8890  141.0232  168.6307 N.pl3   1  UNL1       -0.2056
     24 H         140.0585  141.9925  168.6009 H       1  UNL1        0.1748
     25 S         139.8943  140.3009  169.9452 S.O2    1  UNL1        0.1068
     26 N         139.8997  139.5785  171.2599 N.3     1  UNL1       -0.1906
     27 O         138.6077  140.9744  170.3207 O.2     1  UNL1       -0.1383
     28 O         141.1809  139.6272  169.5698 O.2     1  UNL1       -0.1383
     29 H         139.0760  139.8466  171.7985 H       1  UNL1        0.1456
     30 H         140.7414  139.8256  171.7802 H       1  UNL1        0.1456
@<TRIPOS>BOND
     1    17    18    1
     2    18    19   ar
     3    19    20   ar
     4    20     1    1
     5     1     2   ar
     6     2     3   ar
     7     3     4   ar
     8     4     5   ar
     9     5     6   ar
    10     6     7   ar
    11     7     8   ar
    12     8     9   ar
    13     9    10   ar
    14    10    23    1
    15    23    25    1
    16    25    26    1
    17    25    27    2
    18    25    28    2
    19    10    11   ar
    20    11    12   ar
    21    12    13   ar
    22    13    14    2
    23    13    15   ar
    24    15    16   ar
    25    20    21   ar
    26    21    22   ar
    27    22    18   ar
    28    16     1   ar
    29    15     4   ar
    30    12     7   ar
    31    23    24    1
    32    26    29    1
    33    26    30    1
@<TRIPOS>MOLECULE
*****
 30 33 0 0 0
SMALL
GASTEIGER

@<TRIPOS>ATOM
      1 C         141.6460  142.5456  162.3391 C.ar    1  UNL1        0.0223
      2 C         142.5884  141.5713  161.6968 C.ar    1  UNL1        0.0989
      3 N         143.2145  140.4821  162.5163 N.ar    1  UNL1       -0.2437
      4 C         142.8982  140.3672  163.9780 C.ar    1  UNL1        0.0844
      5 C         143.6256  139.2162  164.6073 C.ar    1  UNL1        0.0192
      6 C         143.5903  138.7551  166.0343 C.ar    1  UNL1        0.0016
      7 C         142.8188  139.3314  167.1844 C.ar    1  UNL1        0.0032
      8 C         143.0676  138.5653  168.4499 C.ar    1  UNL1        0.0014
      9 C         142.3898  138.9787  169.7224 C.ar    1  UNL1        0.0159
     10 C         141.4631  140.1582  169.7296 C.ar    1  UNL1        0.0659
     11 C         141.2143  140.9243  168.4643 C.ar    1  UNL1        0.0191
     12 C         141.8922  140.5109  167.1916 C.ar    1  UNL1        0.0403
     13 C         141.5080  141.4055  166.0505 C.ar    1  UNL1        0.1970
     14 O         140.5495  142.5101  166.3836 O.2     1  UNL1       -0.2865
     15 C         141.9558  141.3415  164.6203 C.ar    1  UNL1        0.0566
     16 C         141.3297  142.4307  163.8008 C.ar    1  UNL1        0.0063
     17 C         140.4087  145.7077  158.2954 C.3     1  UNL1        0.1538
     18 N         140.4512  145.0883  159.6609 N.ar    1  UNL1       -0.2473
     19 C         141.2906  143.9148  160.0710 C.ar    1  UNL1        0.0967
     20 C         141.0199  143.6349  161.5196 C.ar    1  UNL1        0.0411
     21 C         140.0132  144.6354  162.0048 C.ar    1  UNL1        0.1217
     22 N         139.6617  145.5337  160.8561 N.ar    1  UNL1       -0.1676
     23 N         140.7851  140.5717  171.0023 N.pl3   1  UNL1       -0.2056
     24 H         140.7913  139.9698  171.7814 H       1  UNL1        0.1748
     25 S         140.0979  141.9022  171.0878 S.O2    1  UNL1        0.1068
     26 N         139.4107  143.2329  171.1734 N.3     1  UNL1       -0.1906
     27 O         138.8523  141.2960  170.5127 O.2     1  UNL1       -0.1383
     28 O         141.3436  142.5086  171.6630 O.2     1  UNL1       -0.1383
     29 H         138.4564  143.1457  170.8241 H       1  UNL1        0.1456
     30 H         139.9183  143.9145  170.6094 H       1  UNL1        0.1456
@<TRIPOS>BOND
     1    17    18    1
     2    18    19   ar
     3    19    20   ar
     4    20     1    1
     5     1     2   ar
     6     2     3   ar
     7     3     4   ar
     8     4     5   ar
     9     5     6   ar
    10     6     7   ar
    11     7     8   ar
    12     8     9   ar
    13     9    10   ar
    14    10    23    1
    15    23    25    1
    16    25    26    1
    17    25    27    2
    18    25    28    2
    19    10    11   ar
    20    11    12   ar
    21    12    13   ar
    22    13    14    2
    23    13    15   ar
    24    15    16   ar
    25    20    21   ar
    26    21    22   ar
    27    22    18   ar
    28    16     1   ar
    29    15     4   ar
    30    12     7   ar
    31    23    24    1
    32    26    29    1
    33    26    30    1
@<TRIPOS>MOLECULE
*****
 30 33 0 0 0
SMALL
GASTEIGER

@<TRIPOS>ATOM
      1 C         142.8363  142.5814  160.8243 C.ar    1  UNL1        0.0223
      2 C         143.8801  141.5688  160.4567 C.ar    1  UNL1        0.0989
      3 N         144.3210  140.5472  161.4625 N.ar    1  UNL1       -0.2437
      4 C         143.7180  140.5381  162.8360 C.ar    1  UNL1        0.0844
      5 C         144.2956  139.4414  163.6808 C.ar    1  UNL1        0.0192
      6 C         143.9721  139.0865  165.1019 C.ar    1  UNL1        0.0016
      7 C         142.9911  139.7406  166.0290 C.ar    1  UNL1        0.0032
      8 C         142.9758  139.0714  167.3715 C.ar    1  UNL1        0.0014
      9 C         142.0606  139.5727  168.4490 C.ar    1  UNL1        0.0159
     10 C         141.1608  140.7432  168.1841 C.ar    1  UNL1        0.0659
     11 C         141.1761  141.4124  166.8418 C.ar    1  UNL1        0.0191
     12 C         142.0912  140.9111  165.7642 C.ar    1  UNL1        0.0403
     13 C         141.9502  141.7166  164.5067 C.ar    1  UNL1        0.1970
     14 O         140.9534  142.8362  164.5595 O.2     1  UNL1       -0.2865
     15 C         142.6742  141.5506  163.2036 C.ar    1  UNL1        0.0566
     16 C         142.2333  142.5723  162.1977 C.ar    1  UNL1        0.0063
     17 C         142.2229  145.2372  156.3019 C.3     1  UNL1        0.1538
     18 N         142.1135  144.8238  157.7397 N.ar    1  UNL1       -0.2473
     19 C         142.7778  143.6349  158.3683 C.ar    1  UNL1        0.0967
     20 C         142.3954  143.6031  159.8184 C.ar    1  UNL1        0.0411
     21 C         141.4948  144.7724  160.0860 C.ar    1  UNL1        0.1217
     22 N         141.3205  145.5269  158.8013 N.ar    1  UNL1       -0.1676
     23 N         140.2455  141.2447  169.2617 N.pl3   1  UNL1       -0.2056
     24 H         139.4691  141.8030  169.0277 H       1  UNL1        0.1748
     25 S         140.5133  140.8954  170.6956 S.O2    1  UNL1        0.1068
     26 N         140.7811  140.5460  172.1296 N.3     1  UNL1       -0.1906
     27 O         141.5771  141.9513  170.7543 O.2     1  UNL1       -0.1383
     28 O         139.4496  139.8394  170.6370 O.2     1  UNL1       -0.1383
     29 H         141.5238  141.1438  172.4922 H       1  UNL1        0.1456
     30 H         141.0689  139.5696  172.1936 H       1  UNL1        0.1456
@<TRIPOS>BOND
     1    17    18    1
     2    18    19   ar
     3    19    20   ar
     4    20     1    1
     5     1     2   ar
     6     2     3   ar
     7     3     4   ar
     8     4     5   ar
     9     5     6   ar
    10     6     7   ar
    11     7     8   ar
    12     8     9   ar
    13     9    10   ar
    14    10    23    1
    15    23    25    1
    16    25    26    1
    17    25    27    2
    18    25    28    2
    19    10    11   ar
    20    11    12   ar
    21    12    13   ar
    22    13    14    2
    23    13    15   ar
    24    15    16   ar
    25    20    21   ar
    26    21    22   ar
    27    22    18   ar
    28    16     1   ar
    29    15     4   ar
    30    12     7   ar
    31    23    24    1
    32    26    29    1
    33    26    30    1
@<TRIPOS>MOLECULE
*****
 30 33 0 0 0
SMALL
GASTEIGER

@<TRIPOS>ATOM
      1 C         141.0056  143.2291  160.5567 C.ar    1  UNL1        0.0223
      2 C         142.4174  143.6878  160.3412 C.ar    1  UNL1        0.0989
      3 N         143.3774  143.7266  161.4930 N.ar    1  UNL1       -0.2437
      4 C         142.9258  143.3067  162.8603 C.ar    1  UNL1        0.0844
      5 C         144.0355  143.4206  163.8631 C.ar    1  UNL1        0.0192
      6 C         144.0076  143.1040  165.3291 C.ar    1  UNL1        0.0016
      7 C         142.8630  142.5952  166.1542 C.ar    1  UNL1        0.0032
      8 C         143.2612  142.4100  167.5886 C.ar    1  UNL1        0.0014
      9 C         142.2601  141.9071  168.5859 C.ar    1  UNL1        0.0159
     10 C         140.8608  141.5892  168.1490 C.ar    1  UNL1        0.0659
     11 C         140.4625  141.7744  166.7148 C.ar    1  UNL1        0.0191
     12 C         141.4636  142.2774  165.7174 C.ar    1  UNL1        0.0403
     13 C         140.8633  142.3899  164.3473 C.ar    1  UNL1        0.1970
     14 O         139.4216  141.9916  164.2339 O.2     1  UNL1       -0.2865
     15 C         141.5140  142.8479  163.0759 C.ar    1  UNL1        0.0566
     16 C         140.5540  142.8092  161.9241 C.ar    1  UNL1        0.0063
     17 C         138.8080  144.0249  155.8219 C.3     1  UNL1        0.1538
     18 N         139.0354  143.5561  157.2285 N.ar    1  UNL1       -0.2473
     19 C         140.2373  143.8559  158.0744 C.ar    1  UNL1        0.0967
     20 C         140.0455  143.1903  159.4049 C.ar    1  UNL1        0.0411
     21 C         138.7250  142.4791  159.3813 C.ar    1  UNL1        0.1217
     22 N         138.1007  142.7052  158.0363 N.ar    1  UNL1       -0.1676
     23 N         139.8596  141.0862  169.1464 N.pl3   1  UNL1       -0.2056
     24 H         138.9244  140.9413  168.8750 H       1  UNL1        0.1748
     25 S         140.2834  140.8040  170.5573 S.O2    1  UNL1        0.1068
     26 N         140.7072  140.5217  171.9683 N.3     1  UNL1       -0.1906
     27 O         140.7184  139.4270  170.1514 O.2     1  UNL1       -0.1383
     28 O         139.8485  142.1809  170.9634 O.2     1  UNL1       -0.1383
     29 H         141.0821  139.5750  172.0278 H       1  UNL1        0.1456
     30 H         139.9023  140.6083  172.5889 H       1  UNL1        0.1456
@<TRIPOS>BOND
     1    17    18    1
     2    18    19   ar
     3    19    20   ar
     4    20     1    1
     5     1     2   ar
     6     2     3   ar
     7     3     4   ar
     8     4     5   ar
     9     5     6   ar
    10     6     7   ar
    11     7     8   ar
    12     8     9   ar
    13     9    10   ar
    14    10    23    1
    15    23    25    1
    16    25    26    1
    17    25    27    2
    18    25    28    2
    19    10    11   ar
    20    11    12   ar
    21    12    13   ar
    22    13    14    2
    23    13    15   ar
    24    15    16   ar
    25    20    21   ar
    26    21    22   ar
    27    22    18   ar
    28    16     1   ar
    29    15     4   ar
    30    12     7   ar
    31    23    24    1
    32    26    29    1
    33    26    30    1
@<TRIPOS>MOLECULE
*****
 30 33 0 0 0
SMALL
GASTEIGER

@<TRIPOS>ATOM
      1 C         139.3940  140.2986  166.8825 C.ar    1  UNL1        0.0223
      2 C         138.7960  138.9744  166.5099 C.ar    1  UNL1        0.0989
      3 N         138.4292  138.6919  165.0832 N.ar    1  UNL1       -0.2437
      4 C         138.6605  139.7336  164.0290 C.ar    1  UNL1        0.0844
      5 C         138.2264  139.2507  162.6768 C.ar    1  UNL1        0.0192
      6 C         138.2832  139.9727  161.3632 C.ar    1  UNL1        0.0016
      7 C         138.7880  141.3559  161.0774 C.ar    1  UNL1        0.0032
      8 C         138.6653  141.6941  159.6212 C.ar    1  UNL1        0.0014
      9 C         139.1152  143.0351  159.1221 C.ar    1  UNL1        0.0159
     10 C         139.6879  144.0380  160.0793 C.ar    1  UNL1        0.0659
     11 C         139.8107  143.6999  161.5355 C.ar    1  UNL1        0.0191
     12 C         139.3607  142.3589  162.0346 C.ar    1  UNL1        0.0403
     13 C         139.5701  142.2262  163.5140 C.ar    1  UNL1        0.1970
     14 O         140.1705  143.4197  164.1959 O.2     1  UNL1       -0.2865
     15 C         139.2584  141.0578  164.4015 C.ar    1  UNL1        0.0566
     16 C         139.6252  141.3403  165.8283 C.ar    1  UNL1        0.0063
     17 C         141.9847  141.9910  171.1609 C.3     1  UNL1        0.1538
     18 N         140.9516  141.3591  170.2759 N.ar    1  UNL1       -0.2473
     19 C         140.9899  141.3024  168.7774 C.ar    1  UNL1        0.0967
     20 C         139.7607  140.5811  168.3093 C.ar    1  UNL1        0.0411
     21 C         138.9628  140.1921  169.5184 C.ar    1  UNL1        0.1217
     22 N         139.6988  140.6728  170.7338 N.ar    1  UNL1       -0.1676
     23 N         140.1380  145.3792  159.5802 N.pl3   1  UNL1       -0.2056
     24 H         139.6653  146.1944  159.8652 H       1  UNL1        0.1748
     25 S         141.3081  145.4780  158.6470 S.O2    1  UNL1        0.1068
     26 N         142.4783  145.5769  157.7138 N.3     1  UNL1       -0.1906
     27 O         140.4240  146.0942  157.6036 O.2     1  UNL1       -0.1383
     28 O         142.1923  144.8619  159.6905 O.2     1  UNL1       -0.1383
     29 H         142.1767  145.9943  156.8333 H       1  UNL1        0.1456
     30 H         142.8523  144.6445  157.5375 H       1  UNL1        0.1456
@<TRIPOS>BOND
     1    17    18    1
     2    18    19   ar
     3    19    20   ar
     4    20     1    1
     5     1     2   ar
     6     2     3   ar
     7     3     4   ar
     8     4     5   ar
     9     5     6   ar
    10     6     7   ar
    11     7     8   ar
    12     8     9   ar
    13     9    10   ar
    14    10    23    1
    15    23    25    1
    16    25    26    1
    17    25    27    2
    18    25    28    2
    19    10    11   ar
    20    11    12   ar
    21    12    13   ar
    22    13    14    2
    23    13    15   ar
    24    15    16   ar
    25    20    21   ar
    26    21    22   ar
    27    22    18   ar
    28    16     1   ar
    29    15     4   ar
    30    12     7   ar
    31    23    24    1
    32    26    29    1
    33    26    30    1
@<TRIPOS>MOLECULE
*****
 30 33 0 0 0
SMALL
GASTEIGER

@<TRIPOS>ATOM
      1 C         139.9693  140.4372  161.2521 C.ar    1  UNL1        0.0223
      2 C         140.4961  139.0527  161.0170 C.ar    1  UNL1        0.0989
      3 N         141.2078  138.3241  162.1181 N.ar    1  UNL1       -0.2437
      4 C         141.3927  138.9800  163.4544 C.ar    1  UNL1        0.0844
      5 C         142.1259  138.0839  164.4080 C.ar    1  UNL1        0.0192
      6 C         142.5133  138.3511  165.8323 C.ar    1  UNL1        0.0016
      7 C         142.2632  139.5803  166.6546 C.ar    1  UNL1        0.0032
      8 C         142.8187  139.4350  168.0404 C.ar    1  UNL1        0.0014
      9 C         142.6750  140.5553  169.0273 C.ar    1  UNL1        0.0159
     10 C         141.9757  141.8210  168.6286 C.ar    1  UNL1        0.0659
     11 C         141.4201  141.9664  167.2429 C.ar    1  UNL1        0.0191
     12 C         141.5639  140.8460  166.2559 C.ar    1  UNL1        0.0403
     13 C         140.9419  141.1951  164.9362 C.ar    1  UNL1        0.1970
     14 O         140.3131  142.5543  164.8524 O.2     1  UNL1       -0.2865
     15 C         140.8658  140.3646  163.6895 C.ar    1  UNL1        0.0566
     16 C         140.1541  141.0932  162.5883 C.ar    1  UNL1        0.0063
     17 C         137.1452  141.4505  156.9070 C.3     1  UNL1        0.1538
     18 N         137.9594  141.6316  158.1537 N.ar    1  UNL1       -0.2473
     19 C         138.5110  140.5335  159.0139 C.ar    1  UNL1        0.0967
     20 C         139.2575  141.1659  160.1509 C.ar    1  UNL1        0.0411
     21 C         139.1674  142.6549  159.9934 C.ar    1  UNL1        0.1217
     22 N         138.3651  142.9427  158.7591 N.ar    1  UNL1       -0.1676
     23 N         141.8319  142.9415  169.6156 N.pl3   1  UNL1       -0.2056
     24 H         142.5720  143.5765  169.7507 H       1  UNL1        0.1748
     25 S         140.5604  143.0943  170.3966 S.O2    1  UNL1        0.1068
     26 N         139.2889  143.2472  171.1776 N.3     1  UNL1       -0.1906
     27 O         140.0046  143.9775  169.3190 O.2     1  UNL1       -0.1383
     28 O         141.1162  142.2111  171.4741 O.2     1  UNL1       -0.1383
     29 H         138.6444  143.8480  170.6638 H       1  UNL1        0.1456
     30 H         139.4951  143.6665  172.0843 H       1  UNL1        0.1456
@<TRIPOS>BOND
     1    17    18    1
     2    18    19   ar
     3    19    20   ar
     4    20     1    1
     5     1     2   ar
     6     2     3   ar
     7     3     4   ar
     8     4     5   ar
     9     5     6   ar
    10     6     7   ar
    11     7     8   ar
    12     8     9   ar
    13     9    10   ar
    14    10    23    1
    15    23    25    1
    16    25    26    1
    17    25    27    2
    18    25    28    2
    19    10    11   ar
    20    11    12   ar
    21    12    13   ar
    22    13    14    2
    23    13    15   ar
    24    15    16   ar
    25    20    21   ar
    26    21    22   ar
    27    22    18   ar
    28    16     1   ar
    29    15     4   ar
    30    12     7   ar
    31    23    24    1
    32    26    29    1
    33    26    30    1
