@<TRIPOS>MOLECULE
*****
 33 36 0 0 0
SMALL
GASTEIGER

@<TRIPOS>ATOM
      1 C         142.5479  137.3648  156.8991 C.ar    1  UNL1        0.1679
      2 C         141.2144  137.8080  157.4236 C.ar    1  UNL1        0.0733
      3 C         141.0096  139.2336  157.8430 C.ar    1  UNL1        0.1390
      4 N         142.1383  140.2158  157.7378 N.ar    1  UNL1       -0.2088
      5 C         143.4719  139.7726  157.2132 C.ar    1  UNL1        0.2001
      6 N         143.6767  138.3471  156.7939 N.ar    1  UNL1       -0.2047
      7 C         143.6096  132.1941  157.0321 C.3     1  UNL1        0.0540
      8 C         143.2408  133.5625  156.5408 C.ar    1  UNL1        0.0805
      9 C         142.8952  133.9286  155.1278 C.ar    1  UNL1        0.0312
     10 C         142.5936  135.3974  155.0900 C.ar    1  UNL1        0.0637
     11 C         142.2016  136.1861  153.8758 C.3     1  UNL1        0.0522
     12 N         142.7528  135.9392  156.4797 N.ar    1  UNL1       -0.2164
     13 N         143.1527  134.8052  157.3763 N.ar    1  UNL1       -0.1684
     14 C         144.6006  140.7549  157.1080 C.ar    1  UNL1        0.1805
     15 C         144.8106  141.9538  157.9846 C.ar    1  UNL1        0.0434
     16 C         146.0573  142.6506  157.5262 C.ar    1  UNL1        0.0362
     17 C         146.6178  141.8823  156.3662 C.ar    1  UNL1        0.1234
     18 C         147.8605  142.2254  155.5993 C.3     1  UNL1        0.0725
     19 O         145.7175  140.7107  156.1078 O.2     1  UNL1       -0.4546
     20 N         139.6760  139.6769  158.3675 N.am    1  UNL1       -0.2681
     21 C         139.3032  139.4043  159.7947 C.2     1  UNL1        0.2435
     22 O         140.2639  138.6884  160.6972 O.2     1  UNL1       -0.2732
     23 H         139.0455  140.1467  157.7751 H       1  UNL1        0.1563
     24 C         137.9697  139.8476  160.3192 C.3     1  UNL1        0.1588
     25 N         137.8963  140.8792  161.4056 N.3     1  UNL1       -0.2650
     26 C         137.6110  140.6153  162.8544 C.3     1  UNL1        0.0726
     27 C         137.6338  141.9289  163.5782 C.3     1  UNL1        0.0201
     28 C         137.9332  143.0048  162.5768 C.3     1  UNL1        0.0334
     29 C         138.0955  142.3560  161.2341 C.3     1  UNL1        0.0739
     30 C         138.0499  144.4718  162.8670 C.3     1  UNL1        0.0736
     31 N         139.4014  145.1199  162.9235 N.3     1  UNL1       -0.2703
     32 C         139.7854  146.1441  161.8970 C.3     1  UNL1        0.0897
     33 C         140.3689  144.7441  164.0063 C.3     1  UNL1        0.0897
@<TRIPOS>BOND
     1     7     8    1
     2     8     9   ar
     3     9    10   ar
     4    10    11    1
     5    10    12   ar
     6    12     1    1
     7     1     2   ar
     8     2     3   ar
     9     3    20    1
    10    20    21   am
    11    21    22    2
    12    21    24    1
    13    24    25    1
    14    25    26    1
    15    26    27    1
    16    27    28    1
    17    28    30    1
    18    30    31    1
    19    31    32    1
    20    31    33    1
    21    28    29    1
    22     3     4   ar
    23     4     5   ar
    24     5    14    1
    25    14    15   ar
    26    15    16   ar
    27    16    17   ar
    28    17    18    1
    29    17    19   ar
    30     5     6   ar
    31    12    13   ar
    32    13     8   ar
    33     6     1   ar
    34    29    25    1
    35    19    14   ar
    36    20    23    1
@<TRIPOS>MOLECULE
*****
 33 36 0 0 0
SMALL
GASTEIGER

@<TRIPOS>ATOM
      1 C         142.4695  137.1559  157.0906 C.ar    1  UNL1        0.1679
      2 C         141.1893  137.3566  157.8462 C.ar    1  UNL1        0.0733
      3 C         140.9197  138.6636  158.5310 C.ar    1  UNL1        0.1390
      4 N         141.9301  139.7700  158.4602 N.ar    1  UNL1       -0.2088
      5 C         143.2102  139.5693  157.7045 C.ar    1  UNL1        0.2001
      6 N         143.4799  138.2623  157.0198 N.ar    1  UNL1       -0.2047
      7 C         144.4145  132.3730  155.9856 C.3     1  UNL1        0.0540
      8 C         143.6332  133.6504  155.8979 C.ar    1  UNL1        0.0805
      9 C         142.6751  134.0248  154.8060 C.ar    1  UNL1        0.0312
     10 C         142.1226  135.3835  155.1200 C.ar    1  UNL1        0.0637
     11 C         141.1281  136.1434  154.2932 C.3     1  UNL1        0.0522
     12 N         142.7392  135.8489  156.4058 N.ar    1  UNL1       -0.2164
     13 N         143.6727  134.7778  156.8865 N.ar    1  UNL1       -0.1684
     14 C         144.2207  140.6756  157.6337 C.ar    1  UNL1        0.1805
     15 C         144.2662  141.8861  158.5183 C.ar    1  UNL1        0.0434
     16 C         145.4367  142.7243  158.0972 C.ar    1  UNL1        0.0362
     17 C         146.1146  142.0319  156.9522 C.ar    1  UNL1        0.1234
     18 C         147.3305  142.5199  156.2219 C.3     1  UNL1        0.0725
     19 O         145.3631  140.7657  156.6658 O.2     1  UNL1       -0.4546
     20 N         139.6395  138.8644  159.2866 N.am    1  UNL1       -0.2681
     21 C         139.5224  138.3870  160.7038 C.2     1  UNL1        0.2435
     22 O         140.6854  137.7088  161.3653 O.2     1  UNL1       -0.2732
     23 H         138.8762  139.3095  158.8525 H       1  UNL1        0.1563
     24 C         138.2423  138.5877  161.4595 C.3     1  UNL1        0.1588
     25 N         138.2663  139.2128  162.8228 N.3     1  UNL1       -0.2650
     26 C         137.9915  140.6535  163.1371 C.3     1  UNL1        0.0726
     27 C         138.1246  140.8381  164.6198 C.3     1  UNL1        0.0201
     28 C         138.4817  139.5114  165.2218 C.3     1  UNL1        0.0334
     29 C         138.5692  138.5069  164.1112 C.3     1  UNL1        0.0739
     30 C         138.7109  139.2373  166.6786 C.3     1  UNL1        0.0736
     31 N         139.8788  139.8601  167.3842 N.3     1  UNL1       -0.2703
     32 C         139.7289  140.3504  168.7939 C.3     1  UNL1        0.0897
     33 C         141.1967  139.9928  166.6803 C.3     1  UNL1        0.0897
@<TRIPOS>BOND
     1     7     8    1
     2     8     9   ar
     3     9    10   ar
     4    10    11    1
     5    10    12   ar
     6    12     1    1
     7     1     2   ar
     8     2     3   ar
     9     3    20    1
    10    20    21   am
    11    21    22    2
    12    21    24    1
    13    24    25    1
    14    25    26    1
    15    26    27    1
    16    27    28    1
    17    28    30    1
    18    30    31    1
    19    31    32    1
    20    31    33    1
    21    28    29    1
    22     3     4   ar
    23     4     5   ar
    24     5    14    1
    25    14    15   ar
    26    15    16   ar
    27    16    17   ar
    28    17    18    1
    29    17    19   ar
    30     5     6   ar
    31    12    13   ar
    32    13     8   ar
    33     6     1   ar
    34    29    25    1
    35    19    14   ar
    36    20    23    1
@<TRIPOS>MOLECULE
*****
 33 36 0 0 0
SMALL
GASTEIGER

@<TRIPOS>ATOM
      1 C         143.5103  136.2031  156.1814 C.ar    1  UNL1        0.1679
      2 C         142.5816  136.6848  157.2563 C.ar    1  UNL1        0.0733
      3 C         142.5161  138.1453  157.5917 C.ar    1  UNL1        0.1390
      4 N         143.3793  139.1241  156.8522 N.ar    1  UNL1       -0.2088
      5 C         144.3080  138.6424  155.7774 C.ar    1  UNL1        0.2001
      6 N         144.3735  137.1819  155.4420 N.ar    1  UNL1       -0.2047
      7 C         144.6982  131.0608  156.3471 C.3     1  UNL1        0.0540
      8 C         144.1219  132.3789  155.9221 C.ar    1  UNL1        0.0805
      9 C         143.2316  132.6110  154.7373 C.ar    1  UNL1        0.0312
     10 C         142.8942  134.0718  154.6903 C.ar    1  UNL1        0.0637
     11 C         142.0273  134.7439  153.6672 C.3     1  UNL1        0.0522
     12 N         143.5759  134.7425  155.8460 N.ar    1  UNL1       -0.2164
     13 N         144.3346  133.6962  156.6073 N.ar    1  UNL1       -0.1684
     14 C         145.1712  139.6212  155.0379 C.ar    1  UNL1        0.1805
     15 C         145.2688  139.7605  153.5476 C.ar    1  UNL1        0.0434
     16 C         146.2462  140.8580  153.2475 C.ar    1  UNL1        0.0362
     17 C         146.7528  141.3970  154.5524 C.ar    1  UNL1        0.1234
     18 C         147.7489  142.5058  154.7212 C.3     1  UNL1        0.0725
     19 O         146.0884  140.6327  155.6589 O.2     1  UNL1       -0.4546
     20 N         141.5873  138.6271  158.6666 N.am    1  UNL1       -0.2681
     21 C         140.1031  138.5169  158.4802 C.2     1  UNL1        0.2435
     22 O         139.5475  137.9249  157.2188 O.2     1  UNL1       -0.2732
     23 H         141.9520  139.0156  159.4945 H       1  UNL1        0.1563
     24 C         139.1743  138.9986  159.5550 C.3     1  UNL1        0.1588
     25 N         139.3057  138.4694  160.9524 N.3     1  UNL1       -0.2650
     26 C         138.1747  138.0845  161.8594 C.3     1  UNL1        0.0726
     27 C         138.7611  137.6094  163.1557 C.3     1  UNL1        0.0201
     28 C         140.2546  137.7006  163.0498 C.3     1  UNL1        0.0334
     29 C         140.5911  138.2321  161.6881 C.3     1  UNL1        0.0739
     30 C         141.2387  137.3261  164.1181 C.3     1  UNL1        0.0736
     31 N         142.0665  138.3871  164.7805 N.3     1  UNL1       -0.2703
     32 C         141.5614  139.0694  166.0172 C.3     1  UNL1        0.0897
     33 C         143.3995  138.7660  164.2064 C.3     1  UNL1        0.0897
@<TRIPOS>BOND
     1     7     8    1
     2     8     9   ar
     3     9    10   ar
     4    10    11    1
     5    10    12   ar
     6    12     1    1
     7     1     2   ar
     8     2     3   ar
     9     3    20    1
    10    20    21   am
    11    21    22    2
    12    21    24    1
    13    24    25    1
    14    25    26    1
    15    26    27    1
    16    27    28    1
    17    28    30    1
    18    30    31    1
    19    31    32    1
    20    31    33    1
    21    28    29    1
    22     3     4   ar
    23     4     5   ar
    24     5    14    1
    25    14    15   ar
    26    15    16   ar
    27    16    17   ar
    28    17    18    1
    29    17    19   ar
    30     5     6   ar
    31    12    13   ar
    32    13     8   ar
    33     6     1   ar
    34    29    25    1
    35    19    14   ar
    36    20    23    1
@<TRIPOS>MOLECULE
*****
 33 36 0 0 0
SMALL
GASTEIGER

@<TRIPOS>ATOM
      1 C         143.2995  139.2686  156.6806 C.ar    1  UNL1        0.1679
      2 C         141.9867  139.8285  157.1420 C.ar    1  UNL1        0.0733
      3 C         140.8304  138.9099  157.4045 C.ar    1  UNL1        0.1390
      4 N         140.9868  137.4314  157.2056 N.ar    1  UNL1       -0.2088
      5 C         142.2996  136.8715  156.7442 C.ar    1  UNL1        0.2001
      6 N         143.4560  137.7901  156.4817 N.ar    1  UNL1       -0.2047
      7 C         147.4013  141.6388  154.3484 C.3     1  UNL1        0.0540
      8 C         146.3413  141.2766  155.3461 C.ar    1  UNL1        0.0805
      9 C         146.1298  141.9248  156.6822 C.ar    1  UNL1        0.0312
     10 C         144.9646  141.2515  157.3447 C.ar    1  UNL1        0.0637
     11 C         144.4060  141.5841  158.6965 C.3     1  UNL1        0.0522
     12 N         144.4560  140.1872  156.4181 N.ar    1  UNL1       -0.2164
     13 N         145.3069  140.2027  155.1829 N.ar    1  UNL1       -0.1684
     14 C         142.4561  135.3930  156.5453 C.ar    1  UNL1        0.1805
     15 C         143.5050  134.5248  157.1745 C.ar    1  UNL1        0.0434
     16 C         143.2883  133.1183  156.7004 C.ar    1  UNL1        0.0362
     17 C         142.1054  133.1172  155.7780 C.ar    1  UNL1        0.1234
     18 C         141.5366  131.9205  155.0749 C.3     1  UNL1        0.0725
     19 O         141.5911  134.5231  155.6822 O.2     1  UNL1       -0.4546
     20 N         139.5174  139.4698  157.8660 N.am    1  UNL1       -0.2681
     21 C         139.2726  139.7001  159.3278 C.2     1  UNL1        0.2435
     22 O         140.3406  139.3706  160.3282 O.2     1  UNL1       -0.2732
     23 H         138.8165  139.6861  157.2094 H       1  UNL1        0.1563
     24 C         137.9598  140.2600  159.7893 C.3     1  UNL1        0.1588
     25 N         137.9005  141.1170  161.0189 N.3     1  UNL1       -0.2650
     26 C         137.5705  140.6484  162.4051 C.3     1  UNL1        0.0726
     27 C         137.6269  141.8349  163.3212 C.3     1  UNL1        0.0201
     28 C         137.9918  143.0367  162.5012 C.3     1  UNL1        0.0334
     29 C         138.1609  142.5930  161.0783 C.3     1  UNL1        0.0739
     30 C         138.1584  144.4364  163.0140 C.3     1  UNL1        0.0736
     31 N         139.5006  145.1031  162.9521 N.3     1  UNL1       -0.2703
     32 C         140.5498  144.7729  163.9720 C.3     1  UNL1        0.0897
     33 C         139.7939  146.0999  161.8703 C.3     1  UNL1        0.0897
@<TRIPOS>BOND
     1     7     8    1
     2     8     9   ar
     3     9    10   ar
     4    10    11    1
     5    10    12   ar
     6    12     1    1
     7     1     2   ar
     8     2     3   ar
     9     3    20    1
    10    20    21   am
    11    21    22    2
    12    21    24    1
    13    24    25    1
    14    25    26    1
    15    26    27    1
    16    27    28    1
    17    28    30    1
    18    30    31    1
    19    31    32    1
    20    31    33    1
    21    28    29    1
    22     3     4   ar
    23     4     5   ar
    24     5    14    1
    25    14    15   ar
    26    15    16   ar
    27    16    17   ar
    28    17    18    1
    29    17    19   ar
    30     5     6   ar
    31    12    13   ar
    32    13     8   ar
    33     6     1   ar
    34    29    25    1
    35    19    14   ar
    36    20    23    1
@<TRIPOS>MOLECULE
*****
 33 36 0 0 0
SMALL
GASTEIGER

@<TRIPOS>ATOM
      1 C         139.2365  146.6293  155.8616 C.ar    1  UNL1        0.1679
      2 C         140.1288  146.2309  156.9995 C.ar    1  UNL1        0.0733
      3 C         140.0464  144.8451  157.5675 C.ar    1  UNL1        0.1390
      4 N         139.0717  143.8577  156.9975 N.ar    1  UNL1       -0.2088
      5 C         138.1793  144.2561  155.8596 C.ar    1  UNL1        0.2001
      6 N         138.2617  145.6419  155.2916 N.ar    1  UNL1       -0.2047
      7 C         138.5747  151.8228  155.1752 C.3     1  UNL1        0.0540
      8 C         139.0147  150.4024  154.9781 C.ar    1  UNL1        0.0805
      9 C         139.8766  149.8933  153.8609 C.ar    1  UNL1        0.0312
     10 C         140.0646  148.4179  154.0559 C.ar    1  UNL1        0.0637
     11 C         140.8588  147.5055  153.1690 C.3     1  UNL1        0.0522
     12 N         139.3189  148.0152  155.2936 N.ar    1  UNL1       -0.2164
     13 N         138.6700  149.2417  155.8635 N.ar    1  UNL1       -0.1684
     14 C         137.2046  143.2687  155.2896 C.ar    1  UNL1        0.1805
     15 C         136.7605  143.1935  153.8588 C.ar    1  UNL1        0.0434
     16 C         135.7842  142.0614  153.7353 C.ar    1  UNL1        0.0362
     17 C         135.6249  141.4369  155.0898 C.ar    1  UNL1        0.1234
     18 C         134.7426  140.2710  155.4248 C.3     1  UNL1        0.0725
     19 O         136.5027  142.1830  156.0504 O.2     1  UNL1       -0.4546
     20 N         140.9388  144.4466  158.7054 N.am    1  UNL1       -0.2681
     21 C         140.7099  145.0176  160.0735 C.2     1  UNL1        0.2435
     22 O         139.5886  145.9870  160.3036 O.2     1  UNL1       -0.2732
     23 H         141.6748  143.8103  158.5544 H       1  UNL1        0.1563
     24 C         141.6022  144.6191  161.2114 C.3     1  UNL1        0.1588
     25 N         141.0043  144.1545  162.5063 N.3     1  UNL1       -0.2650
     26 C         141.5694  144.3948  163.8748 C.3     1  UNL1        0.0726
     27 C         140.6506  143.7569  164.8743 C.3     1  UNL1        0.0201
     28 C         139.5176  143.1223  164.1234 C.3     1  UNL1        0.0334
     29 C         139.7362  143.3681  162.6599 C.3     1  UNL1        0.0739
     30 C         138.3679  142.3735  164.7296 C.3     1  UNL1        0.0736
     31 N         138.2734  140.8853  164.5678 N.3     1  UNL1       -0.2703
     32 C         137.7632  140.3014  163.2838 C.3     1  UNL1        0.0897
     33 C         138.6891  139.9809  165.6900 C.3     1  UNL1        0.0897
@<TRIPOS>BOND
     1     7     8    1
     2     8     9   ar
     3     9    10   ar
     4    10    11    1
     5    10    12   ar
     6    12     1    1
     7     1     2   ar
     8     2     3   ar
     9     3    20    1
    10    20    21   am
    11    21    22    2
    12    21    24    1
    13    24    25    1
    14    25    26    1
    15    26    27    1
    16    27    28    1
    17    28    30    1
    18    30    31    1
    19    31    32    1
    20    31    33    1
    21    28    29    1
    22     3     4   ar
    23     4     5   ar
    24     5    14    1
    25    14    15   ar
    26    15    16   ar
    27    16    17   ar
    28    17    18    1
    29    17    19   ar
    30     5     6   ar
    31    12    13   ar
    32    13     8   ar
    33     6     1   ar
    34    29    25    1
    35    19    14   ar
    36    20    23    1
@<TRIPOS>MOLECULE
*****
 33 36 0 0 0
SMALL
GASTEIGER

@<TRIPOS>ATOM
      1 C         141.1016  136.7193  155.9407 C.ar    1  UNL1        0.1679
      2 C         141.5927  137.8246  156.8278 C.ar    1  UNL1        0.0733
      3 C         142.7774  137.6000  157.7199 C.ar    1  UNL1        0.1390
      4 N         143.4711  136.2700  157.7248 N.ar    1  UNL1       -0.2088
      5 C         142.9800  135.1647  156.8377 C.ar    1  UNL1        0.2001
      6 N         141.7952  135.3893  155.9457 N.ar    1  UNL1       -0.2047
      7 C         136.2731  138.0042  154.2329 C.3     1  UNL1        0.0540
      8 C         137.6974  137.5345  154.2636 C.ar    1  UNL1        0.0805
      9 C         138.4898  137.0446  153.0879 C.ar    1  UNL1        0.0312
     10 C         139.8614  136.6796  153.5731 C.ar    1  UNL1        0.0637
     11 C         140.9811  136.1443  152.7307 C.3     1  UNL1        0.0522
     12 N         139.9167  136.9439  155.0486 N.ar    1  UNL1       -0.2164
     13 N         138.5793  137.4723  155.4753 N.ar    1  UNL1       -0.1684
     14 C         143.6736  133.8347  156.8426 C.ar    1  UNL1        0.1805
     15 C         144.4708  133.2603  157.9760 C.ar    1  UNL1        0.0434
     16 C         144.9817  131.9162  157.5489 C.ar    1  UNL1        0.0362
     17 C         144.5004  131.6599  156.1516 C.ar    1  UNL1        0.1234
     18 C         144.7786  130.4334  155.3342 C.3     1  UNL1        0.0725
     19 O         143.6919  132.8457  155.7151 O.2     1  UNL1       -0.4546
     20 N         143.2686  138.7053  158.6071 N.am    1  UNL1       -0.2681
     21 C         142.6666  138.8989  159.9673 C.2     1  UNL1        0.2435
     22 O         141.5734  137.9871  160.4403 O.2     1  UNL1       -0.2732
     23 H         143.9861  139.3037  158.2966 H       1  UNL1        0.1563
     24 C         143.1577  140.0042  160.8544 C.3     1  UNL1        0.1588
     25 N         143.1679  139.8224  162.3434 N.3     1  UNL1       -0.2650
     26 C         144.2420  139.1447  163.1416 C.3     1  UNL1        0.0726
     27 C         143.8437  139.1899  164.5870 C.3     1  UNL1        0.0201
     28 C         142.5234  139.8954  164.6822 C.3     1  UNL1        0.0334
     29 C         142.1057  140.2863  163.2955 C.3     1  UNL1        0.0739
     30 C         141.7555  140.1631  165.9426 C.3     1  UNL1        0.0736
     31 N         140.2637  140.3109  165.8949 N.3     1  UNL1       -0.2703
     32 C         139.6458  141.6775  165.8704 C.3     1  UNL1        0.0897
     33 C         139.3895  139.0921  165.8718 C.3     1  UNL1        0.0897
@<TRIPOS>BOND
     1     7     8    1
     2     8     9   ar
     3     9    10   ar
     4    10    11    1
     5    10    12   ar
     6    12     1    1
     7     1     2   ar
     8     2     3   ar
     9     3    20    1
    10    20    21   am
    11    21    22    2
    12    21    24    1
    13    24    25    1
    14    25    26    1
    15    26    27    1
    16    27    28    1
    17    28    30    1
    18    30    31    1
    19    31    32    1
    20    31    33    1
    21    28    29    1
    22     3     4   ar
    23     4     5   ar
    24     5    14    1
    25    14    15   ar
    26    15    16   ar
    27    16    17   ar
    28    17    18    1
    29    17    19   ar
    30     5     6   ar
    31    12    13   ar
    32    13     8   ar
    33     6     1   ar
    34    29    25    1
    35    19    14   ar
    36    20    23    1
@<TRIPOS>MOLECULE
*****
 33 36 0 0 0
SMALL
GASTEIGER

@<TRIPOS>ATOM
      1 C         143.0487  136.9101  156.7949 C.ar    1  UNL1        0.1679
      2 C         142.4783  137.5776  158.0111 C.ar    1  UNL1        0.0733
      3 C         142.8047  139.0126  158.3014 C.ar    1  UNL1        0.1390
      4 N         143.7013  139.7800  157.3756 N.ar    1  UNL1       -0.2088
      5 C         144.2717  139.1124  156.1595 C.ar    1  UNL1        0.2001
      6 N         143.9453  137.6775  155.8691 N.ar    1  UNL1       -0.2047
      7 C         143.0892  131.6309  156.8965 C.3     1  UNL1        0.0540
      8 C         142.7410  133.0485  156.5512 C.ar    1  UNL1        0.0805
      9 C         141.6994  133.4851  155.5640 C.ar    1  UNL1        0.0312
     10 C         141.6880  134.9848  155.5351 C.ar    1  UNL1        0.0637
     11 C         140.7983  135.8435  154.6860 C.3     1  UNL1        0.0522
     12 N         142.7224  135.4750  156.5045 N.ar    1  UNL1       -0.2164
     13 N         143.3732  134.2783  157.1325 N.ar    1  UNL1       -0.1684
     14 C         145.1683  139.8798  155.2337 C.ar    1  UNL1        0.1805
     15 C         145.1474  139.8198  153.7351 C.ar    1  UNL1        0.0434
     16 C         146.2095  140.7449  153.2192 C.ar    1  UNL1        0.0362
     17 C         146.8869  141.3767  154.3990 C.ar    1  UNL1        0.1234
     18 C         148.0104  142.3689  154.3435 C.3     1  UNL1        0.0725
     19 O         146.2434  140.8421  155.6440 O.2     1  UNL1       -0.4546
     20 N         142.2343  139.6802  159.5176 N.am    1  UNL1       -0.2681
     21 C         143.0087  139.6866  160.8023 C.2     1  UNL1        0.2435
     22 O         144.3534  139.0254  160.8707 O.2     1  UNL1       -0.2732
     23 H         141.3518  140.1141  159.4727 H       1  UNL1        0.1563
     24 C         142.4384  140.3542  162.0184 C.3     1  UNL1        0.1588
     25 N         142.4133  139.6276  163.3305 N.3     1  UNL1       -0.2650
     26 C         142.1261  138.1683  163.5249 C.3     1  UNL1        0.0726
     27 C         142.2062  137.8716  164.9931 C.3     1  UNL1        0.0201
     28 C         142.5429  139.1476  165.7061 C.3     1  UNL1        0.0334
     29 C         142.6708  140.2329  164.6786 C.3     1  UNL1        0.0739
     30 C         142.7205  139.3099  167.1867 C.3     1  UNL1        0.0736
     31 N         142.0386  140.4364  167.9048 N.3     1  UNL1       -0.2703
     32 C         140.6211  140.2805  168.3699 C.3     1  UNL1        0.0897
     33 C         142.7740  141.7191  168.1578 C.3     1  UNL1        0.0897
@<TRIPOS>BOND
     1     7     8    1
     2     8     9   ar
     3     9    10   ar
     4    10    11    1
     5    10    12   ar
     6    12     1    1
     7     1     2   ar
     8     2     3   ar
     9     3    20    1
    10    20    21   am
    11    21    22    2
    12    21    24    1
    13    24    25    1
    14    25    26    1
    15    26    27    1
    16    27    28    1
    17    28    30    1
    18    30    31    1
    19    31    32    1
    20    31    33    1
    21    28    29    1
    22     3     4   ar
    23     4     5   ar
    24     5    14    1
    25    14    15   ar
    26    15    16   ar
    27    16    17   ar
    28    17    18    1
    29    17    19   ar
    30     5     6   ar
    31    12    13   ar
    32    13     8   ar
    33     6     1   ar
    34    29    25    1
    35    19    14   ar
    36    20    23    1
@<TRIPOS>MOLECULE
*****
 33 36 0 0 0
SMALL
GASTEIGER

@<TRIPOS>ATOM
      1 C         138.7823  140.6805  157.4745 C.ar    1  UNL1        0.1679
      2 C         139.6238  139.6828  156.7353 C.ar    1  UNL1        0.0733
      3 C         140.2509  138.5374  157.4732 C.ar    1  UNL1        0.1390
      4 N         140.0366  138.3896  158.9505 N.ar    1  UNL1       -0.2088
      5 C         139.1951  139.3873  159.6897 C.ar    1  UNL1        0.2001
      6 N         138.5680  140.5327  158.9518 N.ar    1  UNL1       -0.2047
      7 C         138.0788  145.3520  155.1159 C.3     1  UNL1        0.0540
      8 C         137.8317  143.9732  155.6524 C.ar    1  UNL1        0.0805
      9 C         136.5480  143.2040  155.5495 C.ar    1  UNL1        0.0312
     10 C         136.7479  141.8769  156.2195 C.ar    1  UNL1        0.0637
     11 C         135.7209  140.7915  156.3497 C.3     1  UNL1        0.0522
     12 N         138.1551  141.8260  156.7366 N.ar    1  UNL1       -0.2164
     13 N         138.8249  143.1215  156.3861 N.ar    1  UNL1       -0.1684
     14 C         138.9808  139.2395  161.1670 C.ar    1  UNL1        0.1805
     15 C         139.1383  137.9752  161.9586 C.ar    1  UNL1        0.0434
     16 C         138.8262  138.2844  163.3929 C.ar    1  UNL1        0.0362
     17 C         138.4758  139.7398  163.4876 C.ar    1  UNL1        0.1234
     18 C         138.0964  140.4758  164.7384 C.3     1  UNL1        0.0725
     19 O         138.5713  140.3301  162.1119 O.2     1  UNL1       -0.4546
     20 N         141.0925  137.5397  156.7340 N.am    1  UNL1       -0.2681
     21 C         142.5817  137.5355  156.9131 C.2     1  UNL1        0.2435
     22 O         143.2294  138.5290  157.8316 O.2     1  UNL1       -0.2732
     23 H         140.6673  136.8876  156.1312 H       1  UNL1        0.1563
     24 C         143.4233  136.5378  156.1739 C.3     1  UNL1        0.1588
     25 N         142.9666  135.1141  156.0536 N.3     1  UNL1       -0.2650
     26 C         141.9989  134.5813  155.0389 C.3     1  UNL1        0.0726
     27 C         141.8317  133.1111  155.2851 C.3     1  UNL1        0.0201
     28 C         142.6960  132.7353  156.4520 C.3     1  UNL1        0.0334
     29 C         143.3974  133.9732  156.9269 C.3     1  UNL1        0.0739
     30 C         142.8347  131.3626  157.0405 C.3     1  UNL1        0.0736
     31 N         144.1491  130.6439  156.9660 N.3     1  UNL1       -0.2703
     32 C         144.8999  130.5863  155.6688 C.3     1  UNL1        0.0897
     33 C         144.7128  129.9827  158.1888 C.3     1  UNL1        0.0897
@<TRIPOS>BOND
     1     7     8    1
     2     8     9   ar
     3     9    10   ar
     4    10    11    1
     5    10    12   ar
     6    12     1    1
     7     1     2   ar
     8     2     3   ar
     9     3    20    1
    10    20    21   am
    11    21    22    2
    12    21    24    1
    13    24    25    1
    14    25    26    1
    15    26    27    1
    16    27    28    1
    17    28    30    1
    18    30    31    1
    19    31    32    1
    20    31    33    1
    21    28    29    1
    22     3     4   ar
    23     4     5   ar
    24     5    14    1
    25    14    15   ar
    26    15    16   ar
    27    16    17   ar
    28    17    18    1
    29    17    19   ar
    30     5     6   ar
    31    12    13   ar
    32    13     8   ar
    33     6     1   ar
    34    29    25    1
    35    19    14   ar
    36    20    23    1
@<TRIPOS>MOLECULE
*****
 33 36 0 0 0
SMALL
GASTEIGER

@<TRIPOS>ATOM
      1 C         141.0632  136.7817  155.8887 C.ar    1  UNL1        0.1679
      2 C         141.5855  137.9072  156.7314 C.ar    1  UNL1        0.0733
      3 C         142.7872  137.6958  157.6039 C.ar    1  UNL1        0.1390
      4 N         143.4666  136.3588  157.6336 N.ar    1  UNL1       -0.2088
      5 C         142.9442  135.2332  156.7908 C.ar    1  UNL1        0.2001
      6 N         141.7425  135.4447  155.9184 N.ar    1  UNL1       -0.2047
      7 C         136.2037  138.0445  154.2542 C.3     1  UNL1        0.0540
      8 C         137.6278  137.5735  154.2649 C.ar    1  UNL1        0.0805
      9 C         138.3967  137.0633  153.0822 C.ar    1  UNL1        0.0312
     10 C         139.7771  136.7046  153.5466 C.ar    1  UNL1        0.0637
     11 C         140.8797  136.1541  152.6915 C.3     1  UNL1        0.0522
     12 N         139.8614  136.9931  155.0162 N.ar    1  UNL1       -0.2164
     13 N         138.5331  137.5301  155.4601 N.ar    1  UNL1       -0.1684
     14 C         143.6236  133.8962  156.8205 C.ar    1  UNL1        0.1805
     15 C         144.3754  133.3148  157.9810 C.ar    1  UNL1        0.0434
     16 C         144.8868  131.9651  157.5727 C.ar    1  UNL1        0.0362
     17 C         144.4511  131.7123  156.1598 C.ar    1  UNL1        0.1234
     18 C         144.7445  130.4821  155.3534 C.3     1  UNL1        0.0725
     19 O         143.6703  132.9058  155.6950 O.2     1  UNL1       -0.4546
     20 N         143.3096  138.8214  158.4467 N.am    1  UNL1       -0.2681
     21 C         142.9628  138.8903  159.9044 C.2     1  UNL1        0.2435
     22 O         142.0936  137.8337  160.5193 O.2     1  UNL1       -0.2732
     23 H         143.8801  139.5148  158.0430 H       1  UNL1        0.1563
     24 C         143.4852  140.0158  160.7472 C.3     1  UNL1        0.1588
     25 N         142.7053  141.2921  160.8609 N.3     1  UNL1       -0.2650
     26 C         142.0824  142.0490  159.7255 C.3     1  UNL1        0.0726
     27 C         141.4036  143.2603  160.2929 C.3     1  UNL1        0.0201
     28 C         141.6070  143.2521  161.7790 C.3     1  UNL1        0.0334
     29 C         142.4115  142.0357  162.1300 C.3     1  UNL1        0.0739
     30 C         141.0957  144.2798  162.7446 C.3     1  UNL1        0.0736
     31 N         139.7716  144.9420  162.5036 N.3     1  UNL1       -0.2703
     32 C         138.5074  144.2826  162.9695 C.3     1  UNL1        0.0897
     33 C         139.7115  146.2637  161.7968 C.3     1  UNL1        0.0897
@<TRIPOS>BOND
     1     7     8    1
     2     8     9   ar
     3     9    10   ar
     4    10    11    1
     5    10    12   ar
     6    12     1    1
     7     1     2   ar
     8     2     3   ar
     9     3    20    1
    10    20    21   am
    11    21    22    2
    12    21    24    1
    13    24    25    1
    14    25    26    1
    15    26    27    1
    16    27    28    1
    17    28    30    1
    18    30    31    1
    19    31    32    1
    20    31    33    1
    21    28    29    1
    22     3     4   ar
    23     4     5   ar
    24     5    14    1
    25    14    15   ar
    26    15    16   ar
    27    16    17   ar
    28    17    18    1
    29    17    19   ar
    30     5     6   ar
    31    12    13   ar
    32    13     8   ar
    33     6     1   ar
    34    29    25    1
    35    19    14   ar
    36    20    23    1
