@<TRIPOS>MOLECULE
*****
 29 30 0 0 0
SMALL
GASTEIGER

@<TRIPOS>ATOM
      1 C         140.9082  144.1768  162.8900 C.ar    1  UNL1        0.1255
      2 C         141.5594  142.8755  163.2541 C.ar    1  UNL1        0.0233
      3 C         141.1840  142.1797  164.5288 C.ar    1  UNL1        0.0383
      4 C         140.1575  142.7853  165.4395 C.ar    1  UNL1        0.1386
      5 C         139.5063  144.0865  165.0755 C.ar    1  UNL1        0.0383
      6 C         139.8817  144.7823  163.8007 C.ar    1  UNL1        0.0233
      7 S         141.2836  144.8725  161.6153 S.O2    1  UNL1        0.0768
      8 O         140.3973  146.0253  161.9834 O.2     1  UNL1       -0.1498
      9 O         142.1699  143.7197  161.2471 O.2     1  UNL1       -0.1498
     10 N         141.1815  146.1004  157.8427 N.am    1  UNL1       -0.2894
     11 C         140.8061  145.4046  159.1175 C.2     1  UNL1        0.3194
     12 O         139.5778  144.5452  159.1692 O.2     1  UNL1       -0.2512
     13 N         141.6590  145.5683  160.3405 N.am    1  UNL1       -0.1693
     14 H         141.9877  146.6644  157.8088 H       1  UNL1        0.1509
     15 H         142.4652  146.1323  160.3065 H       1  UNL1        0.1781
     16 C         140.4518  144.7002  155.7794 C.3     1  UNL1        0.0213
     17 C         140.3286  145.9367  156.6197 C.3     1  UNL1        0.0732
     18 C         139.3525  147.0093  156.2370 C.3     1  UNL1        0.0213
     19 O         139.7821  142.0895  166.7143 O.3     1  UNL1       -0.4755
     20 C         140.3296  140.7255  167.0136 C.3     1  UNL1        0.2054
     21 C         139.4332  139.5250  166.9414 C.3     1  UNL1        0.0488
     22 C         138.3054  139.4895  165.9530 C.3     1  UNL1        0.0212
     23 C         138.5451  138.9896  164.5592 C.3     1  UNL1        0.0722
     24 N         138.5684  139.9537  163.4103 N.3     1  UNL1       -0.2727
     25 C         137.6730  141.1571  163.4227 C.3     1  UNL1        0.0721
     26 C         137.6963  142.1211  162.2738 C.3     1  UNL1        0.0174
     27 C         138.6150  141.8818  161.1125 C.3     1  UNL1        0.0029
     28 C         139.5104  140.6785  161.1000 C.3     1  UNL1        0.0174
     29 C         139.4871  139.7144  162.2490 C.3     1  UNL1        0.0721
@<TRIPOS>BOND
     1    16    17    1
     2    17    18    1
     3    17    10    1
     4    10    11   am
     5    11    12    2
     6    11    13   am
     7    13     7    1
     8     7     8    2
     9     7     9    2
    10     7     1    1
    11     1     2   ar
    12     2     3   ar
    13     3     4   ar
    14     4    19    1
    15    19    20    1
    16    20    21    1
    17    21    22    1
    18    22    23    1
    19    23    24    1
    20    24    25    1
    21    25    26    1
    22    26    27    1
    23    27    28    1
    24    28    29    1
    25     4     5   ar
    26     5     6   ar
    27     6     1   ar
    28    29    24    1
    29    10    14    1
    30    13    15    1
@<TRIPOS>MOLECULE
*****
 29 30 0 0 0
SMALL
GASTEIGER

@<TRIPOS>ATOM
      1 C         141.7396  143.2701  162.1222 C.ar    1  UNL1        0.1255
      2 C         141.9826  141.8407  161.7383 C.ar    1  UNL1        0.0233
      3 C         141.9499  140.7669  162.7851 C.ar    1  UNL1        0.0383
      4 C         141.6743  141.1226  164.2160 C.ar    1  UNL1        0.1386
      5 C         141.4313  142.5521  164.6000 C.ar    1  UNL1        0.0383
      6 C         141.4640  143.6259  163.5531 C.ar    1  UNL1        0.0233
      7 S         141.7723  144.3439  161.0753 S.O2    1  UNL1        0.0768
      8 O         140.4895  144.9062  161.6120 O.2     1  UNL1       -0.1498
      9 O         143.0552  143.7816  160.5386 O.2     1  UNL1       -0.1498
     10 N         141.1908  146.2590  157.6484 N.am    1  UNL1       -0.2894
     11 C         141.1581  145.1852  158.6953 C.2     1  UNL1        0.3194
     12 O         140.4784  143.8790  158.4089 O.2     1  UNL1       -0.2512
     13 N         141.8050  145.4177  160.0285 N.am    1  UNL1       -0.1693
     14 H         141.6368  147.1163  157.8363 H       1  UNL1        0.1509
     15 H         142.2511  146.2750  160.2164 H       1  UNL1        0.1781
     16 C         141.2074  145.1391  155.3041 C.3     1  UNL1        0.0213
     17 C         140.5438  146.0265  156.3151 C.3     1  UNL1        0.0732
     18 C         139.2334  146.6814  155.9930 C.3     1  UNL1        0.0213
     19 O         141.6416  140.0489  165.2629 O.3     1  UNL1       -0.4755
     20 C         141.9155  138.6236  164.8842 C.3     1  UNL1        0.2054
     21 C         140.7758  137.6909  164.5994 C.3     1  UNL1        0.0488
     22 C         139.3616  138.1775  164.7154 C.3     1  UNL1        0.0212
     23 C         138.6428  138.6894  163.5024 C.3     1  UNL1        0.0722
     24 N         138.3477  140.1539  163.3679 N.3     1  UNL1       -0.2727
     25 C         138.3339  140.7948  162.0117 C.3     1  UNL1        0.0721
     26 C         138.0388  142.2593  161.8773 C.3     1  UNL1        0.0174
     27 C         137.7575  143.0830  163.0989 C.3     1  UNL1        0.0029
     28 C         137.7714  142.4422  164.4550 C.3     1  UNL1        0.0174
     29 C         138.0664  140.9776  164.5896 C.3     1  UNL1        0.0721
@<TRIPOS>BOND
     1    16    17    1
     2    17    18    1
     3    17    10    1
     4    10    11   am
     5    11    12    2
     6    11    13   am
     7    13     7    1
     8     7     8    2
     9     7     9    2
    10     7     1    1
    11     1     2   ar
    12     2     3   ar
    13     3     4   ar
    14     4    19    1
    15    19    20    1
    16    20    21    1
    17    21    22    1
    18    22    23    1
    19    23    24    1
    20    24    25    1
    21    25    26    1
    22    26    27    1
    23    27    28    1
    24    28    29    1
    25     4     5   ar
    26     5     6   ar
    27     6     1   ar
    28    29    24    1
    29    10    14    1
    30    13    15    1
@<TRIPOS>MOLECULE
*****
 29 30 0 0 0
SMALL
GASTEIGER

@<TRIPOS>ATOM
      1 C         140.8621  143.1999  163.5229 C.ar    1  UNL1        0.1255
      2 C         140.6891  141.7291  163.2845 C.ar    1  UNL1        0.0233
      3 C         140.1177  140.8566  164.3626 C.ar    1  UNL1        0.0383
      4 C         139.7193  141.4550  165.6791 C.ar    1  UNL1        0.1386
      5 C         139.8923  142.9257  165.9175 C.ar    1  UNL1        0.0383
      6 C         140.4636  143.7982  164.8394 C.ar    1  UNL1        0.0233
      7 S         141.4335  144.0723  162.4447 S.O2    1  UNL1        0.0768
      8 O         140.5185  145.1857  162.8608 O.2     1  UNL1       -0.1498
      9 O         142.3485  142.9589  162.0287 O.2     1  UNL1       -0.1498
     10 N         141.9993  145.7744  158.9046 N.am    1  UNL1       -0.2894
     11 C         141.4279  144.9019  159.9827 C.2     1  UNL1        0.3194
     12 O         140.2796  143.9866  159.6769 O.2     1  UNL1       -0.2512
     13 N         142.0049  144.9447  161.3666 N.am    1  UNL1       -0.1693
     14 H         142.7530  146.3751  159.1053 H       1  UNL1        0.1509
     15 H         142.7586  145.5455  161.5673 H       1  UNL1        0.1781
     16 C         140.1027  146.3860  157.2376 C.3     1  UNL1        0.0213
     17 C         141.4223  145.7315  157.5206 C.3     1  UNL1        0.0732
     18 C         142.1650  145.0341  156.4197 C.3     1  UNL1        0.0213
     19 O         139.1479  140.5825  166.7572 O.3     1  UNL1       -0.4755
     20 C         140.0527  139.9716  167.7859 C.3     1  UNL1        0.2054
     21 C         141.4677  140.4511  167.9197 C.3     1  UNL1        0.0488
     22 C         142.6034  139.5587  167.5147 C.3     1  UNL1        0.0212
     23 C         142.9257  139.3675  166.0622 C.3     1  UNL1        0.0722
     24 N         143.7255  140.4030  165.3288 N.3     1  UNL1       -0.2727
     25 C         143.5602  141.8555  165.6652 C.3     1  UNL1        0.0721
     26 C         144.3600  142.8910  164.9318 C.3     1  UNL1        0.0174
     27 C         145.3252  142.4741  163.8620 C.3     1  UNL1        0.0029
     28 C         145.4906  141.0217  163.5255 C.3     1  UNL1        0.0174
     29 C         144.6908  139.9861  164.2590 C.3     1  UNL1        0.0721
@<TRIPOS>BOND
     1    16    17    1
     2    17    18    1
     3    17    10    1
     4    10    11   am
     5    11    12    2
     6    11    13   am
     7    13     7    1
     8     7     8    2
     9     7     9    2
    10     7     1    1
    11     1     2   ar
    12     2     3   ar
    13     3     4   ar
    14     4    19    1
    15    19    20    1
    16    20    21    1
    17    21    22    1
    18    22    23    1
    19    23    24    1
    20    24    25    1
    21    25    26    1
    22    26    27    1
    23    27    28    1
    24    28    29    1
    25     4     5   ar
    26     5     6   ar
    27     6     1   ar
    28    29    24    1
    29    10    14    1
    30    13    15    1
@<TRIPOS>MOLECULE
*****
 29 30 0 0 0
SMALL
GASTEIGER

@<TRIPOS>ATOM
      1 C         138.7020  138.8559  163.1763 C.ar    1  UNL1        0.1255
      2 C         139.0465  137.6642  164.0196 C.ar    1  UNL1        0.0233
      3 C         138.9493  137.7496  165.5140 C.ar    1  UNL1        0.0383
      4 C         138.5077  139.0266  166.1652 C.ar    1  UNL1        0.1386
      5 C         138.1632  140.2183  165.3219 C.ar    1  UNL1        0.0383
      6 C         138.2603  140.1330  163.8275 C.ar    1  UNL1        0.0233
      7 S         138.7991  138.7706  161.6819 S.O2    1  UNL1        0.0768
      8 O         140.1966  139.3122  161.7418 O.2     1  UNL1       -0.1498
      9 O         137.4016  138.2289  161.6220 O.2     1  UNL1       -0.1498
     10 N         138.6019  139.7754  157.8477 N.am    1  UNL1       -0.2894
     11 C         138.5047  139.8607  159.3421 C.2     1  UNL1        0.3194
     12 O         138.0160  141.1217  159.9911 O.2     1  UNL1       -0.2512
     13 N         138.8963  138.6852  160.1875 N.am    1  UNL1       -0.1693
     14 H         138.9226  138.9478  157.4217 H       1  UNL1        0.1509
     15 H         139.2170  137.8576  159.7615 H       1  UNL1        0.1781
     16 C         136.7724  141.1617  156.6305 C.3     1  UNL1        0.0213
     17 C         138.2103  140.9510  157.0023 C.3     1  UNL1        0.0732
     18 C         139.2565  141.9159  156.5287 C.3     1  UNL1        0.0213
     19 O         138.4105  139.1120  167.6596 O.3     1  UNL1       -0.4755
     20 C         139.3624  139.9830  168.4245 C.3     1  UNL1        0.2054
     21 C         140.7770  140.1435  167.9522 C.3     1  UNL1        0.0488
     22 C         141.2535  141.4741  167.4495 C.3     1  UNL1        0.0212
     23 C         141.4976  141.6784  165.9837 C.3     1  UNL1        0.0722
     24 N         140.6965  142.6941  165.2244 N.3     1  UNL1       -0.2727
     25 C         140.8652  142.8248  163.7396 C.3     1  UNL1        0.0721
     26 C         140.0641  143.8404  162.9803 C.3     1  UNL1        0.0174
     27 C         139.0943  144.7255  163.7057 C.3     1  UNL1        0.0029
     28 C         138.9256  144.5949  165.1904 C.3     1  UNL1        0.0174
     29 C         139.7268  143.5792  165.9498 C.3     1  UNL1        0.0721
@<TRIPOS>BOND
     1    16    17    1
     2    17    18    1
     3    17    10    1
     4    10    11   am
     5    11    12    2
     6    11    13   am
     7    13     7    1
     8     7     8    2
     9     7     9    2
    10     7     1    1
    11     1     2   ar
    12     2     3   ar
    13     3     4   ar
    14     4    19    1
    15    19    20    1
    16    20    21    1
    17    21    22    1
    18    22    23    1
    19    23    24    1
    20    24    25    1
    21    25    26    1
    22    26    27    1
    23    27    28    1
    24    28    29    1
    25     4     5   ar
    26     5     6   ar
    27     6     1   ar
    28    29    24    1
    29    10    14    1
    30    13    15    1
@<TRIPOS>MOLECULE
*****
 29 30 0 0 0
SMALL
GASTEIGER

@<TRIPOS>ATOM
      1 C         139.5317  143.0726  163.0807 C.ar    1  UNL1        0.1255
      2 C         140.7853  142.4167  163.5788 C.ar    1  UNL1        0.0233
      3 C         140.7071  141.3531  164.6336 C.ar    1  UNL1        0.0383
      4 C         139.3752  140.9454  165.1903 C.ar    1  UNL1        0.1386
      5 C         138.1216  141.6013  164.6922 C.ar    1  UNL1        0.0383
      6 C         138.1998  142.6649  163.6374 C.ar    1  UNL1        0.0233
      7 S         139.6099  144.1362  162.0259 S.O2    1  UNL1        0.0768
      8 O         141.0356  144.4074  162.4051 O.2     1  UNL1       -0.1498
      9 O         138.1842  143.8649  161.6466 O.2     1  UNL1       -0.1498
     10 N         140.2106  145.9111  158.5275 N.am    1  UNL1       -0.2894
     11 C         140.1323  144.8476  159.5823 C.2     1  UNL1        0.3194
     12 O         140.4983  143.4317  159.2484 O.2     1  UNL1       -0.2512
     13 N         139.6882  145.1998  160.9710 N.am    1  UNL1       -0.1693
     14 H         139.9704  146.8404  158.7466 H       1  UNL1        0.1509
     15 H         139.4480  146.1290  161.1902 H       1  UNL1        0.1781
     16 C         139.6400  145.1884  156.0980 C.3     1  UNL1        0.0213
     17 C         140.6548  145.5589  157.1387 C.3     1  UNL1        0.0732
     18 C         142.1137  145.5771  156.7907 C.3     1  UNL1        0.0213
     19 O         139.2970  139.8818  166.2452 O.3     1  UNL1       -0.4755
     20 C         138.3937  138.6999  166.0529 C.3     1  UNL1        0.2054
     21 C         138.8546  137.5284  165.2373 C.3     1  UNL1        0.0488
     22 C         139.4552  137.7490  163.8806 C.3     1  UNL1        0.0212
     23 C         140.7998  137.1707  163.5526 C.3     1  UNL1        0.0722
     24 N         142.0461  137.9424  163.8709 N.3     1  UNL1       -0.2727
     25 C         142.4402  138.1745  165.2995 C.3     1  UNL1        0.0721
     26 C         143.6864  138.9462  165.6178 C.3     1  UNL1        0.0174
     27 C         144.5386  139.4858  164.5075 C.3     1  UNL1        0.0029
     28 C         144.1445  139.2537  163.0790 C.3     1  UNL1        0.0174
     29 C         142.8982  138.4819  162.7606 C.3     1  UNL1        0.0721
@<TRIPOS>BOND
     1    16    17    1
     2    17    18    1
     3    17    10    1
     4    10    11   am
     5    11    12    2
     6    11    13   am
     7    13     7    1
     8     7     8    2
     9     7     9    2
    10     7     1    1
    11     1     2   ar
    12     2     3   ar
    13     3     4   ar
    14     4    19    1
    15    19    20    1
    16    20    21    1
    17    21    22    1
    18    22    23    1
    19    23    24    1
    20    24    25    1
    21    25    26    1
    22    26    27    1
    23    27    28    1
    24    28    29    1
    25     4     5   ar
    26     5     6   ar
    27     6     1   ar
    28    29    24    1
    29    10    14    1
    30    13    15    1
@<TRIPOS>MOLECULE
*****
 29 30 0 0 0
SMALL
GASTEIGER

@<TRIPOS>ATOM
      1 C         138.7597  141.6892  163.9814 C.ar    1  UNL1        0.1255
      2 C         138.2475  140.3203  164.3183 C.ar    1  UNL1        0.0233
      3 C         138.5986  139.6909  165.6338 C.ar    1  UNL1        0.0383
      4 C         139.4619  140.4305  166.6124 C.ar    1  UNL1        0.1386
      5 C         139.9741  141.7994  166.2755 C.ar    1  UNL1        0.0383
      6 C         139.6230  142.4288  164.9600 C.ar    1  UNL1        0.0233
      7 S         138.4086  142.3186  162.6659 S.O2    1  UNL1        0.0768
      8 O         139.7396  143.0098  162.6413 O.2     1  UNL1       -0.1498
      9 O         137.0775  141.6275  162.6904 O.2     1  UNL1       -0.1498
     10 N         138.1224  142.9183  158.7533 N.am    1  UNL1       -0.2894
     11 C         138.4735  142.2889  160.0688 C.2     1  UNL1        0.3194
     12 O         139.2408  141.0004  160.1027 O.2     1  UNL1       -0.2512
     13 N         138.0575  142.9480  161.3503 N.am    1  UNL1       -0.1693
     14 H         137.6189  143.7640  158.7310 H       1  UNL1        0.1509
     15 H         137.5539  143.7937  161.3281 H       1  UNL1        0.1781
     16 C         137.7973  141.0542  156.9729 C.3     1  UNL1        0.0213
     17 C         138.5386  142.2591  157.4717 C.3     1  UNL1        0.0732
     18 C         139.6959  142.8048  156.6889 C.3     1  UNL1        0.0213
     19 O         139.8130  139.8011  167.9279 O.3     1  UNL1       -0.4755
     20 C         140.8638  140.4221  168.7998 C.3     1  UNL1        0.2054
     21 C         142.3160  140.1813  168.5115 C.3     1  UNL1        0.0488
     22 C         142.7174  139.1947  167.4552 C.3     1  UNL1        0.0212
     23 C         143.0571  139.6713  166.0741 C.3     1  UNL1        0.0722
     24 N         142.3023  139.1417  164.8910 N.3     1  UNL1       -0.2727
     25 C         141.7270  137.7568  164.9272 C.3     1  UNL1        0.0721
     26 C         140.9722  137.2271  163.7441 C.3     1  UNL1        0.0174
     27 C         140.7926  138.0822  162.5249 C.3     1  UNL1        0.0029
     28 C         141.3679  139.4670  162.4887 C.3     1  UNL1        0.0174
     29 C         142.1227  139.9968  163.6718 C.3     1  UNL1        0.0721
@<TRIPOS>BOND
     1    16    17    1
     2    17    18    1
     3    17    10    1
     4    10    11   am
     5    11    12    2
     6    11    13   am
     7    13     7    1
     8     7     8    2
     9     7     9    2
    10     7     1    1
    11     1     2   ar
    12     2     3   ar
    13     3     4   ar
    14     4    19    1
    15    19    20    1
    16    20    21    1
    17    21    22    1
    18    22    23    1
    19    23    24    1
    20    24    25    1
    21    25    26    1
    22    26    27    1
    23    27    28    1
    24    28    29    1
    25     4     5   ar
    26     5     6   ar
    27     6     1   ar
    28    29    24    1
    29    10    14    1
    30    13    15    1
@<TRIPOS>MOLECULE
*****
 29 30 0 0 0
SMALL
GASTEIGER

@<TRIPOS>ATOM
      1 C         138.3987  139.3764  163.2512 C.ar    1  UNL1        0.1255
      2 C         138.7137  138.0681  163.9138 C.ar    1  UNL1        0.0233
      3 C         138.8586  137.9984  165.4051 C.ar    1  UNL1        0.0383
      4 C         138.6884  139.2369  166.2339 C.ar    1  UNL1        0.1386
      5 C         138.3734  140.5452  165.5714 C.ar    1  UNL1        0.0383
      6 C         138.2285  140.6150  164.0800 C.ar    1  UNL1        0.0233
      7 S         138.2538  139.4461  161.7598 S.O2    1  UNL1        0.0768
      8 O         137.6341  138.0801  161.7562 O.2     1  UNL1       -0.1498
      9 O         138.8734  140.8122  161.7635 O.2     1  UNL1       -0.1498
     10 N         139.0852  139.1272  157.8924 N.am    1  UNL1       -0.2894
     11 C         139.2301  139.0575  159.3838 C.2     1  UNL1        0.3194
     12 O         140.4962  138.5293  159.9904 O.2     1  UNL1       -0.2512
     13 N         138.1089  139.5159  160.2685 N.am    1  UNL1       -0.1693
     14 H         138.2542  139.4739  157.4943 H       1  UNL1        0.1509
     15 H         137.2779  139.8625  159.8703 H       1  UNL1        0.1781
     16 C         140.2086  137.2711  156.4631 C.3     1  UNL1        0.0213
     17 C         140.2064  138.6687  157.0077 C.3     1  UNL1        0.0732
     18 C         141.3255  139.6079  156.6676 C.3     1  UNL1        0.0213
     19 O         138.8333  139.1672  167.7253 O.3     1  UNL1       -0.4755
     20 C         139.5714  140.2477  168.4584 C.3     1  UNL1        0.2054
     21 C         140.7332  139.8970  169.3401 C.3     1  UNL1        0.0488
     22 C         142.1358  140.0802  168.8406 C.3     1  UNL1        0.0212
     23 C         142.3977  140.9369  167.6376 C.3     1  UNL1        0.0722
     24 N         142.3155  140.3439  166.2623 N.3     1  UNL1       -0.2727
     25 C         142.5271  138.8718  166.0664 C.3     1  UNL1        0.0721
     26 C         142.4449  138.2788  164.6910 C.3     1  UNL1        0.0174
     27 C         142.1513  139.1578  163.5116 C.3     1  UNL1        0.0029
     28 C         141.9398  140.6298  163.7074 C.3     1  UNL1        0.0174
     29 C         142.0219  141.2229  165.0828 C.3     1  UNL1        0.0721
@<TRIPOS>BOND
     1    16    17    1
     2    17    18    1
     3    17    10    1
     4    10    11   am
     5    11    12    2
     6    11    13   am
     7    13     7    1
     8     7     8    2
     9     7     9    2
    10     7     1    1
    11     1     2   ar
    12     2     3   ar
    13     3     4   ar
    14     4    19    1
    15    19    20    1
    16    20    21    1
    17    21    22    1
    18    22    23    1
    19    23    24    1
    20    24    25    1
    21    25    26    1
    22    26    27    1
    23    27    28    1
    24    28    29    1
    25     4     5   ar
    26     5     6   ar
    27     6     1   ar
    28    29    24    1
    29    10    14    1
    30    13    15    1
@<TRIPOS>MOLECULE
*****
 29 30 0 0 0
SMALL
GASTEIGER

@<TRIPOS>ATOM
      1 C         140.6732  143.8342  162.3745 C.ar    1  UNL1        0.1255
      2 C         140.6850  144.4143  163.7577 C.ar    1  UNL1        0.0233
      3 C         140.2045  143.5950  164.9187 C.ar    1  UNL1        0.0383
      4 C         139.7123  142.1957  164.6965 C.ar    1  UNL1        0.1386
      5 C         139.7005  141.6155  163.3133 C.ar    1  UNL1        0.0383
      6 C         140.1810  142.4348  162.1523 C.ar    1  UNL1        0.0233
      7 S         141.1537  144.6534  161.2135 S.O2    1  UNL1        0.0768
      8 O         141.9729  143.4923  160.7332 O.2     1  UNL1       -0.1498
      9 O         140.3345  145.8145  161.6938 O.2     1  UNL1       -0.1498
     10 N         141.3677  146.2602  157.5910 N.am    1  UNL1       -0.2894
     11 C         140.8873  145.4410  158.7520 C.2     1  UNL1        0.3194
     12 O         139.6598  144.5901  158.6126 O.2     1  UNL1       -0.2512
     13 N         141.6342  145.4727  160.0524 N.am    1  UNL1       -0.1693
     14 H         142.1733  146.8187  157.6825 H       1  UNL1        0.1509
     15 H         142.4397  146.0311  160.1439 H       1  UNL1        0.1781
     16 C         139.4045  147.0862  156.1032 C.3     1  UNL1        0.0213
     17 C         140.6208  146.2285  156.2905 C.3     1  UNL1        0.0732
     18 C         141.0901  145.3392  155.1775 C.3     1  UNL1        0.0213
     19 O         139.2318  141.3764  165.8576 O.3     1  UNL1       -0.4755
     20 C         138.5181  140.0794  165.6160 C.3     1  UNL1        0.2054
     21 C         139.2412  138.7789  165.8054 C.3     1  UNL1        0.0488
     22 C         140.5684  138.5553  165.1430 C.3     1  UNL1        0.0212
     23 C         141.8360  138.8925  165.8707 C.3     1  UNL1        0.0722
     24 N         142.5129  140.2088  165.6276 N.3     1  UNL1       -0.2727
     25 C         142.9994  140.5593  164.2526 C.3     1  UNL1        0.0721
     26 C         143.6763  141.8756  164.0095 C.3     1  UNL1        0.0174
     27 C         143.8668  142.8414  165.1413 C.3     1  UNL1        0.0029
     28 C         143.3803  142.4909  166.5162 C.3     1  UNL1        0.0174
     29 C         142.7033  141.1746  166.7594 C.3     1  UNL1        0.0721
@<TRIPOS>BOND
     1    16    17    1
     2    17    18    1
     3    17    10    1
     4    10    11   am
     5    11    12    2
     6    11    13   am
     7    13     7    1
     8     7     8    2
     9     7     9    2
    10     7     1    1
    11     1     2   ar
    12     2     3   ar
    13     3     4   ar
    14     4    19    1
    15    19    20    1
    16    20    21    1
    17    21    22    1
    18    22    23    1
    19    23    24    1
    20    24    25    1
    21    25    26    1
    22    26    27    1
    23    27    28    1
    24    28    29    1
    25     4     5   ar
    26     5     6   ar
    27     6     1   ar
    28    29    24    1
    29    10    14    1
    30    13    15    1
@<TRIPOS>MOLECULE
*****
 29 30 0 0 0
SMALL
GASTEIGER

@<TRIPOS>ATOM
      1 C         141.6657  144.5130  161.3340 C.ar    1  UNL1        0.1255
      2 C         141.3671  145.2750  162.5910 C.ar    1  UNL1        0.0233
      3 C         142.2579  145.1249  163.7885 C.ar    1  UNL1        0.0383
      4 C         143.4473  144.2129  163.7289 C.ar    1  UNL1        0.1386
      5 C         143.7459  143.4509  162.4719 C.ar    1  UNL1        0.0383
      6 C         142.8551  143.6010  161.2744 C.ar    1  UNL1        0.0233
      7 S         140.7749  144.6630  160.1365 S.O2    1  UNL1        0.0768
      8 O         141.3971  143.4448  159.5210 O.2     1  UNL1       -0.1498
      9 O         140.1528  145.8813  160.7519 O.2     1  UNL1       -0.1498
     10 N         139.4861  145.6923  156.5268 N.am    1  UNL1       -0.2894
     11 C         140.3769  145.5423  157.7243 C.2     1  UNL1        0.3194
     12 O         141.7606  146.1214  157.7071 O.2     1  UNL1       -0.2512
     13 N         139.8842  144.8131  158.9390 N.am    1  UNL1       -0.1693
     14 H         138.5781  145.3122  156.5381 H       1  UNL1        0.1509
     15 H         138.9761  144.4330  158.9502 H       1  UNL1        0.1781
     16 C         140.8709  145.7234  154.3287 C.3     1  UNL1        0.0213
     17 C         139.9790  146.4215  155.3121 C.3     1  UNL1        0.0732
     18 C         139.5800  147.8488  155.0809 C.3     1  UNL1        0.0213
     19 O         144.3381  144.0629  164.9264 O.3     1  UNL1       -0.4755
     20 C         143.9646  143.1118  166.0245 C.3     1  UNL1        0.2054
     21 C         143.2927  141.8119  165.6946 C.3     1  UNL1        0.0488
     22 C         141.8045  141.6813  165.8298 C.3     1  UNL1        0.0212
     23 C         140.9658  141.3766  164.6241 C.3     1  UNL1        0.0722
     24 N         139.8713  142.3170  164.2147 N.3     1  UNL1       -0.2727
     25 C         139.2600  142.2075  162.8492 C.3     1  UNL1        0.0721
     26 C         138.1656  143.1479  162.4398 C.3     1  UNL1        0.0174
     27 C         137.6823  144.1979  163.3958 C.3     1  UNL1        0.0029
     28 C         138.2935  144.3075  164.7612 C.3     1  UNL1        0.0174
     29 C         139.3880  143.3670  165.1707 C.3     1  UNL1        0.0721
@<TRIPOS>BOND
     1    16    17    1
     2    17    18    1
     3    17    10    1
     4    10    11   am
     5    11    12    2
     6    11    13   am
     7    13     7    1
     8     7     8    2
     9     7     9    2
    10     7     1    1
    11     1     2   ar
    12     2     3   ar
    13     3     4   ar
    14     4    19    1
    15    19    20    1
    16    20    21    1
    17    21    22    1
    18    22    23    1
    19    23    24    1
    20    24    25    1
    21    25    26    1
    22    26    27    1
    23    27    28    1
    24    28    29    1
    25     4     5   ar
    26     5     6   ar
    27     6     1   ar
    28    29    24    1
    29    10    14    1
    30    13    15    1
