@<TRIPOS>MOLECULE
*****
 36 40 0 0 0
SMALL
GASTEIGER

@<TRIPOS>ATOM
      1 C         138.4088  139.8037  159.2698 C.ar    1  UNL1        0.0503
      2 C         139.7722  139.2506  159.5616 C.ar    1  UNL1        0.0143
      3 C         140.0808  138.6938  160.9198 C.ar    1  UNL1       -0.0029
      4 C         139.0260  138.6901  161.9862 C.ar    1  UNL1       -0.0208
      5 C         137.6625  139.2432  161.6944 C.ar    1  UNL1       -0.0029
      6 C         137.3539  139.8000  160.3362 C.ar    1  UNL1        0.0143
      7 O         138.1076  142.7650  158.8957 O.2     1  UNL1       -0.2727
      8 C         137.9495  141.8413  157.7246 C.2     1  UNL1        0.2469
      9 N         138.1001  140.3605  157.9116 N.am    1  UNL1       -0.2824
     10 H         137.9964  139.7542  157.1430 H       1  UNL1        0.1549
     11 C         137.6409  142.3981  156.3664 C.3     1  UNL1        0.1662
     12 C         138.4069  143.4780  155.6613 C.3     1  UNL1        0.0400
     13 C         137.7514  143.7200  154.3340 C.3     1  UNL1        0.0665
     14 C         136.5804  142.7897  154.2187 C.ar    1  UNL1        0.1229
     15 N         135.5675  142.5810  153.1322 N.ar    1  UNL1       -0.2306
     16 C         134.4863  141.5553  153.3019 C.ar    1  UNL1        0.1051
     17 C         134.4180  140.7383  154.5580 C.ar    1  UNL1        0.0814
     18 C         135.4309  140.9470  155.6445 C.ar    1  UNL1        0.2637
     19 O         135.3625  140.1300  156.9006 O.2     1  UNL1       -0.2669
     20 N         136.5121  141.9727  155.4748 N.ar    1  UNL1       -0.2773
     21 C         139.3345  138.1333  163.3444 C.3     1  UNL1        0.0420
     22 C         139.4085  139.0481  164.5309 C.3     1  UNL1        0.0585
     23 C         139.0060  138.7057  165.9348 C.3     1  UNL1        0.0175
     24 C         139.2466  139.9119  166.7933 C.3     1  UNL1        0.0199
     25 C         139.7978  140.9999  165.9201 C.3     1  UNL1        0.0855
     26 N         139.8979  140.4660  164.5218 N.3     1  UNL1       -0.2971
     27 H         140.8682  140.4953  164.2087 H       1  UNL1        0.1233
     28 C         140.1817  142.3794  166.3666 C.3     1  UNL1        0.1470
     29 O         139.7582  143.5729  165.5627 O.3     1  UNL1       -0.3787
     30 H         140.0862  144.3813  165.9867 H       1  UNL1        0.2108
     31 C         140.9890  142.5656  167.6170 C.ar    1  UNL1        0.0055
     32 C         142.4119  142.0938  167.6683 C.ar    1  UNL1       -0.0019
     33 C         143.2192  142.2800  168.9187 C.ar    1  UNL1       -0.0002
     34 C         142.6035  142.9380  170.1179 C.ar    1  UNL1       -0.0000
     35 C         141.1806  143.4099  170.0666 C.ar    1  UNL1       -0.0002
     36 C         140.3733  143.2237  168.8162 C.ar    1  UNL1       -0.0019
@<TRIPOS>BOND
     1     7     8    2
     2     8     9   am
     3     9     1    1
     4     1     2   ar
     5     2     3   ar
     6     3     4   ar
     7     4    21    1
     8    22    21    1
     9    22    23    1
    10    23    24    1
    11    25    24    1
    12    25    28    1
    13    28    29    1
    14    28    31    1
    15    31    32   ar
    16    32    33   ar
    17    33    34   ar
    18    34    35   ar
    19    35    36   ar
    20    25    26    1
    21     4     5   ar
    22     5     6   ar
    23    11     8    1
    24    11    12    1
    25    12    13    1
    26    13    14    1
    27    14    15   ar
    28    15    16   ar
    29    16    17   ar
    30    17    18   ar
    31    18    19    2
    32    18    20   ar
    33     6     1   ar
    34    20    11    1
    35    26    22    1
    36    20    14   ar
    37    36    31   ar
    38     9    10    1
    39    29    30    1
    40    26    27    1
@<TRIPOS>MOLECULE
*****
 36 40 0 0 0
SMALL
GASTEIGER

@<TRIPOS>ATOM
      1 C         143.3135  138.4599  159.3431 C.ar    1  UNL1        0.0503
      2 C         143.6853  139.9034  159.5105 C.ar    1  UNL1        0.0143
      3 C         144.0429  140.4334  160.8674 C.ar    1  UNL1       -0.0029
      4 C         144.0288  139.5198  162.0569 C.ar    1  UNL1       -0.0208
      5 C         143.6570  138.0762  161.8896 C.ar    1  UNL1       -0.0029
      6 C         143.2994  137.5463  160.5327 C.ar    1  UNL1        0.0143
      7 O         140.4329  138.1804  158.5534 O.2     1  UNL1       -0.2727
      8 C         141.5155  137.7902  157.5913 C.2     1  UNL1        0.2469
      9 N         142.9559  137.9300  157.9862 N.am    1  UNL1       -0.2824
     10 H         143.6665  137.6739  157.3548 H       1  UNL1        0.1549
     11 C         141.1579  137.2603  156.2344 C.3     1  UNL1        0.1662
     12 C         140.2587  137.9274  155.2362 C.3     1  UNL1        0.0400
     13 C         140.1817  137.0495  154.0223 C.3     1  UNL1        0.0665
     14 C         141.0334  135.8399  154.2703 C.ar    1  UNL1        0.1229
     15 N         141.3375  134.6367  153.4278 N.ar    1  UNL1       -0.2306
     16 C         142.2449  133.5637  153.9525 C.ar    1  UNL1        0.1051
     17 C         142.8482  133.6940  155.3197 C.ar    1  UNL1        0.0814
     18 C         142.5441  134.8972  156.1621 C.ar    1  UNL1        0.2637
     19 O         143.1474  135.0274  157.5293 O.2     1  UNL1       -0.2669
     20 N         141.6367  135.9701  155.6374 N.ar    1  UNL1       -0.2773
     21 C         144.3864  140.0496  163.4139 C.3     1  UNL1        0.0420
     22 C         143.5288  139.7170  164.5988 C.3     1  UNL1        0.0585
     23 C         143.9295  138.8638  165.7656 C.3     1  UNL1        0.0175
     24 C         142.7683  138.7987  166.7129 C.3     1  UNL1        0.0199
     25 C         141.6498  139.6117  166.1315 C.3     1  UNL1        0.0855
     26 N         142.1198  140.1793  164.8249 N.3     1  UNL1       -0.2971
     27 H         142.0912  141.1983  164.8599 H       1  UNL1        0.1233
     28 C         140.2986  139.8205  166.7483 C.3     1  UNL1        0.1470
     29 O         139.1049  139.0937  166.2034 O.3     1  UNL1       -0.3787
     30 H         138.3165  139.3399  166.7120 H       1  UNL1        0.2108
     31 C         140.1409  140.7562  167.9101 C.ar    1  UNL1        0.0055
     32 C         139.4203  140.3034  169.1453 C.ar    1  UNL1       -0.0019
     33 C         139.2626  141.2390  170.3071 C.ar    1  UNL1       -0.0002
     34 C         139.8255  142.6275  170.2336 C.ar    1  UNL1       -0.0000
     35 C         140.5461  143.0802  168.9984 C.ar    1  UNL1       -0.0002
     36 C         140.7038  142.1447  167.8366 C.ar    1  UNL1       -0.0019
@<TRIPOS>BOND
     1     7     8    2
     2     8     9   am
     3     9     1    1
     4     1     2   ar
     5     2     3   ar
     6     3     4   ar
     7     4    21    1
     8    22    21    1
     9    22    23    1
    10    23    24    1
    11    25    24    1
    12    25    28    1
    13    28    29    1
    14    28    31    1
    15    31    32   ar
    16    32    33   ar
    17    33    34   ar
    18    34    35   ar
    19    35    36   ar
    20    25    26    1
    21     4     5   ar
    22     5     6   ar
    23    11     8    1
    24    11    12    1
    25    12    13    1
    26    13    14    1
    27    14    15   ar
    28    15    16   ar
    29    16    17   ar
    30    17    18   ar
    31    18    19    2
    32    18    20   ar
    33     6     1   ar
    34    20    11    1
    35    26    22    1
    36    20    14   ar
    37    36    31   ar
    38     9    10    1
    39    29    30    1
    40    26    27    1
@<TRIPOS>MOLECULE
*****
 36 40 0 0 0
SMALL
GASTEIGER

@<TRIPOS>ATOM
      1 C         144.2117  143.0359  162.0366 C.ar    1  UNL1        0.0503
      2 C         145.0312  142.0601  162.8279 C.ar    1  UNL1        0.0143
      3 C         144.8701  141.9794  164.3170 C.ar    1  UNL1       -0.0029
      4 C         143.8894  142.8745  165.0148 C.ar    1  UNL1       -0.0208
      5 C         143.0698  143.8503  164.2236 C.ar    1  UNL1       -0.0029
      6 C         143.2310  143.9310  162.7344 C.ar    1  UNL1        0.0143
      7 O         143.1553  140.8358  160.2921 O.2     1  UNL1       -0.2727
      8 C         143.8446  142.0165  159.6752 C.2     1  UNL1        0.2469
      9 N         144.3728  143.1166  160.5475 N.am    1  UNL1       -0.2824
     10 H         144.8253  143.8916  160.1426 H       1  UNL1        0.1549
     11 C         144.0057  142.0972  158.1861 C.3     1  UNL1        0.1662
     12 C         144.7696  141.1325  157.3283 C.3     1  UNL1        0.0400
     13 C         144.6672  141.5959  155.9054 C.3     1  UNL1        0.0665
     14 C         143.8401  142.8471  155.8837 C.ar    1  UNL1        0.1229
     15 N         143.4064  143.7442  154.7626 N.ar    1  UNL1       -0.2306
     16 C         142.5639  144.9512  155.0510 C.ar    1  UNL1        0.1051
     17 C         142.1550  145.2611  156.4606 C.ar    1  UNL1        0.0814
     18 C         142.5887  144.3639  157.5817 C.ar    1  UNL1        0.2637
     19 O         142.1799  144.6737  158.9913 O.2     1  UNL1       -0.2669
     20 N         143.4313  143.1569  157.2933 N.ar    1  UNL1       -0.2773
     21 C         143.7282  142.7938  166.5040 C.3     1  UNL1        0.0420
     22 C         142.7002  141.8775  167.0985 C.3     1  UNL1        0.0585
     23 C         142.7119  141.3259  168.4934 C.3     1  UNL1        0.0175
     24 C         141.4989  140.4593  168.6595 C.3     1  UNL1        0.0199
     25 C         140.7374  140.4753  167.3672 C.3     1  UNL1        0.0855
     26 N         141.4798  141.3517  166.4024 N.3     1  UNL1       -0.2971
     27 H         140.8854  142.1281  166.1122 H       1  UNL1        0.1233
     28 C         139.4582  139.7433  167.0886 C.3     1  UNL1        0.1470
     29 O         138.5716  139.3238  168.2235 O.3     1  UNL1       -0.3787
     30 H         137.7919  138.8657  167.8725 H       1  UNL1        0.2108
     31 C         139.0654  139.4308  165.6751 C.ar    1  UNL1        0.0055
     32 C         138.3305  140.4516  164.8577 C.ar    1  UNL1       -0.0019
     33 C         137.9377  140.1391  163.4442 C.ar    1  UNL1       -0.0002
     34 C         138.2798  138.8059  162.8480 C.ar    1  UNL1       -0.0000
     35 C         139.0147  137.7851  163.6653 C.ar    1  UNL1       -0.0002
     36 C         139.4075  138.0975  165.0788 C.ar    1  UNL1       -0.0019
@<TRIPOS>BOND
     1     7     8    2
     2     8     9   am
     3     9     1    1
     4     1     2   ar
     5     2     3   ar
     6     3     4   ar
     7     4    21    1
     8    22    21    1
     9    22    23    1
    10    23    24    1
    11    25    24    1
    12    25    28    1
    13    28    29    1
    14    28    31    1
    15    31    32   ar
    16    32    33   ar
    17    33    34   ar
    18    34    35   ar
    19    35    36   ar
    20    25    26    1
    21     4     5   ar
    22     5     6   ar
    23    11     8    1
    24    11    12    1
    25    12    13    1
    26    13    14    1
    27    14    15   ar
    28    15    16   ar
    29    16    17   ar
    30    17    18   ar
    31    18    19    2
    32    18    20   ar
    33     6     1   ar
    34    20    11    1
    35    26    22    1
    36    20    14   ar
    37    36    31   ar
    38     9    10    1
    39    29    30    1
    40    26    27    1
@<TRIPOS>MOLECULE
*****
 36 40 0 0 0
SMALL
GASTEIGER

@<TRIPOS>ATOM
      1 C         138.4213  139.6997  159.3997 C.ar    1  UNL1        0.0503
      2 C         139.7560  139.0597  159.6423 C.ar    1  UNL1        0.0143
      3 C         140.0661  138.4555  160.9797 C.ar    1  UNL1       -0.0029
      4 C         139.0414  138.4915  162.0746 C.ar    1  UNL1       -0.0208
      5 C         137.7067  139.1315  161.8320 C.ar    1  UNL1       -0.0029
      6 C         137.3966  139.7356  160.4945 C.ar    1  UNL1        0.0143
      7 O         138.1431  142.6741  159.1254 O.2     1  UNL1       -0.2727
      8 C         137.9721  141.7911  157.9251 C.2     1  UNL1        0.2469
      9 N         138.1112  140.3038  158.0622 N.am    1  UNL1       -0.2824
     10 H         137.9989  139.7242  157.2743 H       1  UNL1        0.1549
     11 C         137.6620  142.3952  156.5876 C.3     1  UNL1        0.1662
     12 C         138.4213  143.5059  155.9243 C.3     1  UNL1        0.0400
     13 C         137.7667  143.7918  154.6054 C.3     1  UNL1        0.0665
     14 C         136.6027  142.8579  154.4534 C.ar    1  UNL1        0.1229
     15 N         135.5935  142.6819  153.3578 N.ar    1  UNL1       -0.2306
     16 C         134.5195  141.6429  153.4873 C.ar    1  UNL1        0.1051
     17 C         134.4547  140.7798  154.7124 C.ar    1  UNL1        0.0814
     18 C         135.4640  140.9557  155.8080 C.ar    1  UNL1        0.2637
     19 O         135.3993  140.0926  157.0331 O.2     1  UNL1       -0.2669
     20 N         136.5380  141.9948  155.6785 N.ar    1  UNL1       -0.2773
     21 C         139.3515  137.8874  163.4121 C.3     1  UNL1        0.0420
     22 C         139.4116  138.7577  164.6323 C.3     1  UNL1        0.0585
     23 C         138.5902  138.5902  165.8763 C.3     1  UNL1        0.0175
     24 C         138.9746  139.6773  166.8356 C.3     1  UNL1        0.0199
     25 C         140.0336  140.5168  166.1846 C.3     1  UNL1        0.0855
     26 N         140.3037  139.9485  164.8229 N.3     1  UNL1       -0.2971
     27 H         141.2807  139.6636  164.7543 H       1  UNL1        0.1233
     28 C         140.7047  141.7144  166.7890 C.3     1  UNL1        0.1470
     29 O         140.3864  142.1214  168.1973 O.3     1  UNL1       -0.3787
     30 H         140.9023  142.9090  168.4307 H       1  UNL1        0.2108
     31 C         141.6942  142.5049  165.9854 C.ar    1  UNL1        0.0055
     32 C         143.1639  142.3485  166.2412 C.ar    1  UNL1       -0.0019
     33 C         144.1535  143.1391  165.4376 C.ar    1  UNL1       -0.0002
     34 C         143.6732  144.0861  164.3781 C.ar    1  UNL1       -0.0000
     35 C         142.2035  144.2426  164.1223 C.ar    1  UNL1       -0.0002
     36 C         141.2140  143.4520  164.9259 C.ar    1  UNL1       -0.0019
@<TRIPOS>BOND
     1     7     8    2
     2     8     9   am
     3     9     1    1
     4     1     2   ar
     5     2     3   ar
     6     3     4   ar
     7     4    21    1
     8    22    21    1
     9    22    23    1
    10    23    24    1
    11    25    24    1
    12    25    28    1
    13    28    29    1
    14    28    31    1
    15    31    32   ar
    16    32    33   ar
    17    33    34   ar
    18    34    35   ar
    19    35    36   ar
    20    25    26    1
    21     4     5   ar
    22     5     6   ar
    23    11     8    1
    24    11    12    1
    25    12    13    1
    26    13    14    1
    27    14    15   ar
    28    15    16   ar
    29    16    17   ar
    30    17    18   ar
    31    18    19    2
    32    18    20   ar
    33     6     1   ar
    34    20    11    1
    35    26    22    1
    36    20    14   ar
    37    36    31   ar
    38     9    10    1
    39    29    30    1
    40    26    27    1
@<TRIPOS>MOLECULE
*****
 36 40 0 0 0
SMALL
GASTEIGER

@<TRIPOS>ATOM
      1 C         143.2973  138.6001  159.5354 C.ar    1  UNL1        0.0503
      2 C         143.6733  140.0380  159.7385 C.ar    1  UNL1        0.0143
      3 C         144.0810  140.5216  161.0986 C.ar    1  UNL1       -0.0029
      4 C         144.1127  139.5674  162.2555 C.ar    1  UNL1       -0.0208
      5 C         143.7367  138.1296  162.0524 C.ar    1  UNL1       -0.0029
      6 C         143.3290  137.6459  160.6923 C.ar    1  UNL1        0.0143
      7 O         140.3900  138.2975  158.8603 O.2     1  UNL1       -0.2727
      8 C         141.4358  137.9651  157.8378 C.2     1  UNL1        0.2469
      9 N         142.8896  138.1165  158.1753 N.am    1  UNL1       -0.2824
     10 H         143.5760  137.8983  157.5042 H       1  UNL1        0.1549
     11 C         141.0281  137.4814  156.4777 C.3     1  UNL1        0.1662
     12 C         140.0508  138.1534  155.5593 C.3     1  UNL1        0.0400
     13 C         139.9448  137.3281  154.3113 C.3     1  UNL1        0.0665
     14 C         140.8566  136.1461  154.4583 C.ar    1  UNL1        0.1229
     15 N         141.1636  134.9958  153.5459 N.ar    1  UNL1       -0.2306
     16 C         142.1402  133.9402  153.9726 C.ar    1  UNL1        0.1051
     17 C         142.8097  134.0350  155.3115 C.ar    1  UNL1        0.0814
     18 C         142.5026  135.1853  156.2238 C.ar    1  UNL1        0.2637
     19 O         143.1722  135.2801  157.5628 O.2     1  UNL1       -0.2669
     20 N         141.5261  136.2409  155.7972 N.ar    1  UNL1       -0.2773
     21 C         144.5205  140.0510  163.6156 C.3     1  UNL1        0.0420
     22 C         143.5067  140.1306  164.7183 C.3     1  UNL1        0.0585
     23 C         143.2845  139.1024  165.7877 C.3     1  UNL1        0.0175
     24 C         142.1776  139.5885  166.6756 C.3     1  UNL1        0.0199
     25 C         141.7156  140.9173  166.1549 C.3     1  UNL1        0.0855
     26 N         142.5370  141.2523  164.9453 N.3     1  UNL1       -0.2971
     27 H         143.0451  142.1227  165.1021 H       1  UNL1        0.1233
     28 C         140.6239  141.7626  166.7410 C.3     1  UNL1        0.1470
     29 O         140.4957  141.8959  168.2296 O.3     1  UNL1       -0.3787
     30 H         139.7446  142.4729  168.4390 H       1  UNL1        0.2108
     31 C         139.6602  142.4747  165.8385 C.ar    1  UNL1        0.0055
     32 C         139.6582  143.9734  165.7766 C.ar    1  UNL1       -0.0019
     33 C         138.6946  144.6854  164.8742 C.ar    1  UNL1       -0.0002
     34 C         137.7330  143.8988  164.0336 C.ar    1  UNL1       -0.0000
     35 C         137.7351  142.4000  164.0955 C.ar    1  UNL1       -0.0002
     36 C         138.6986  141.6879  164.9979 C.ar    1  UNL1       -0.0019
@<TRIPOS>BOND
     1     7     8    2
     2     8     9   am
     3     9     1    1
     4     1     2   ar
     5     2     3   ar
     6     3     4   ar
     7     4    21    1
     8    22    21    1
     9    22    23    1
    10    23    24    1
    11    25    24    1
    12    25    28    1
    13    28    29    1
    14    28    31    1
    15    31    32   ar
    16    32    33   ar
    17    33    34   ar
    18    34    35   ar
    19    35    36   ar
    20    25    26    1
    21     4     5   ar
    22     5     6   ar
    23    11     8    1
    24    11    12    1
    25    12    13    1
    26    13    14    1
    27    14    15   ar
    28    15    16   ar
    29    16    17   ar
    30    17    18   ar
    31    18    19    2
    32    18    20   ar
    33     6     1   ar
    34    20    11    1
    35    26    22    1
    36    20    14   ar
    37    36    31   ar
    38     9    10    1
    39    29    30    1
    40    26    27    1
@<TRIPOS>MOLECULE
*****
 36 40 0 0 0
SMALL
GASTEIGER

@<TRIPOS>ATOM
      1 C         142.7329  137.8441  158.4929 C.ar    1  UNL1        0.0503
      2 C         143.0143  137.2776  159.8530 C.ar    1  UNL1        0.0143
      3 C         143.5033  138.1735  160.9522 C.ar    1  UNL1       -0.0029
      4 C         143.7108  139.6359  160.6912 C.ar    1  UNL1       -0.0208
      5 C         143.4294  140.2025  159.3311 C.ar    1  UNL1       -0.0029
      6 C         142.9404  139.3065  158.2319 C.ar    1  UNL1        0.0143
      7 O         144.4147  137.4174  156.0456 O.2     1  UNL1       -0.2727
      8 C         143.0849  136.7348  156.1700 C.2     1  UNL1        0.2469
      9 N         142.2439  136.9481  157.3937 N.am    1  UNL1       -0.2824
     10 H         141.3711  136.5001  157.4754 H       1  UNL1        0.1549
     11 C         142.5959  135.8388  155.0708 C.3     1  UNL1        0.1662
     12 C         142.1953  136.2729  153.6920 C.3     1  UNL1        0.0400
     13 C         141.7735  135.0538  152.9266 C.3     1  UNL1        0.0665
     14 C         141.9135  133.8663  153.8323 C.ar    1  UNL1        0.1229
     15 N         141.6438  132.4059  153.6214 N.ar    1  UNL1       -0.2306
     16 C         141.8824  131.4307  154.7359 C.ar    1  UNL1        0.1051
     17 C         142.3907  131.9159  156.0611 C.ar    1  UNL1        0.0814
     18 C         142.6604  133.3763  156.2719 C.ar    1  UNL1        0.2637
     19 O         143.1687  133.8615  157.5971 O.2     1  UNL1       -0.2669
     20 N         142.4218  134.3515  155.1575 N.ar    1  UNL1       -0.2773
     21 C         144.1998  140.5320  161.7903 C.3     1  UNL1        0.0420
     22 C         143.6223  140.4109  163.1694 C.3     1  UNL1        0.0585
     23 C         144.2984  139.7929  164.3573 C.3     1  UNL1        0.0175
     24 C         143.3613  139.8865  165.5248 C.3     1  UNL1        0.0199
     25 C         142.1060  140.5624  165.0585 C.3     1  UNL1        0.0855
     26 N         142.2673  140.8865  163.6028 N.3     1  UNL1       -0.2971
     27 H         142.1928  141.8940  163.4621 H       1  UNL1        0.1233
     28 C         140.9010  140.8618  165.9001 C.3     1  UNL1        0.1470
     29 O         140.6887  140.1310  167.1928 O.3     1  UNL1       -0.3787
     30 H         139.8693  140.4414  167.6089 H       1  UNL1        0.2108
     31 C         139.9083  141.8918  165.4491 C.ar    1  UNL1        0.0055
     32 C         138.6775  141.4708  164.7022 C.ar    1  UNL1       -0.0019
     33 C         137.6847  142.5009  164.2512 C.ar    1  UNL1       -0.0002
     34 C         137.9228  143.9520  164.5472 C.ar    1  UNL1       -0.0000
     35 C         139.1536  144.3730  165.2941 C.ar    1  UNL1       -0.0002
     36 C         140.1463  143.3430  165.7451 C.ar    1  UNL1       -0.0019
@<TRIPOS>BOND
     1     7     8    2
     2     8     9   am
     3     9     1    1
     4     1     2   ar
     5     2     3   ar
     6     3     4   ar
     7     4    21    1
     8    22    21    1
     9    22    23    1
    10    23    24    1
    11    25    24    1
    12    25    28    1
    13    28    29    1
    14    28    31    1
    15    31    32   ar
    16    32    33   ar
    17    33    34   ar
    18    34    35   ar
    19    35    36   ar
    20    25    26    1
    21     4     5   ar
    22     5     6   ar
    23    11     8    1
    24    11    12    1
    25    12    13    1
    26    13    14    1
    27    14    15   ar
    28    15    16   ar
    29    16    17   ar
    30    17    18   ar
    31    18    19    2
    32    18    20   ar
    33     6     1   ar
    34    20    11    1
    35    26    22    1
    36    20    14   ar
    37    36    31   ar
    38     9    10    1
    39    29    30    1
    40    26    27    1
@<TRIPOS>MOLECULE
*****
 36 40 0 0 0
SMALL
GASTEIGER

@<TRIPOS>ATOM
      1 C         142.7427  138.4158  159.1106 C.ar    1  UNL1        0.0503
      2 C         142.6932  139.8791  158.7845 C.ar    1  UNL1        0.0143
      3 C         143.2660  140.8808  159.7428 C.ar    1  UNL1       -0.0029
      4 C         143.8882  140.4192  161.0272 C.ar    1  UNL1       -0.0208
      5 C         143.9377  138.9559  161.3533 C.ar    1  UNL1       -0.0029
      6 C         143.3649  137.9542  160.3950 C.ar    1  UNL1        0.0143
      7 O         144.0128  138.0152  156.4224 O.2     1  UNL1       -0.2727
      8 C         142.8051  137.2137  156.8081 C.2     1  UNL1        0.2469
      9 N         142.1700  137.4140  158.1522 N.am    1  UNL1       -0.2824
     10 H         141.3772  136.8880  158.4054 H       1  UNL1        0.1549
     11 C         142.2323  136.2120  155.8497 C.3     1  UNL1        0.1662
     12 C         141.4688  136.5263  154.5974 C.3     1  UNL1        0.0400
     13 C         141.0872  135.2286  153.9492 C.3     1  UNL1        0.0665
     14 C         141.6148  134.1122  154.8008 C.ar    1  UNL1        0.1229
     15 N         141.5423  132.6208  154.6585 N.ar    1  UNL1       -0.2306
     16 C         142.1775  131.7371  155.6908 C.ar    1  UNL1        0.1051
     17 C         142.8852  132.3449  156.8654 C.ar    1  UNL1        0.0814
     18 C         142.9578  133.8363  157.0077 C.ar    1  UNL1        0.2637
     19 O         143.6656  134.4441  158.1823 O.2     1  UNL1       -0.2669
     20 N         142.3226  134.7200  155.9754 N.ar    1  UNL1       -0.2773
     21 C         144.4610  141.4209  161.9857 C.3     1  UNL1        0.0420
     22 C         143.8143  141.6350  163.3221 C.3     1  UNL1        0.0585
     23 C         144.4180  141.3091  164.6561 C.3     1  UNL1        0.0175
     24 C         143.4273  141.6852  165.7176 C.3     1  UNL1        0.0199
     25 C         142.2113  142.2436  165.0398 C.3     1  UNL1        0.0855
     26 N         142.4505  142.2126  163.5592 N.3     1  UNL1       -0.2971
     27 H         142.4048  143.1589  163.1813 H       1  UNL1        0.1233
     28 C         140.9734  142.7451  165.7225 C.3     1  UNL1        0.1470
     29 O         140.2107  143.8982  165.1405 O.3     1  UNL1       -0.3787
     30 H         139.4433  144.0939  165.7006 H       1  UNL1        0.2108
     31 C         140.4981  142.0934  166.9872 C.ar    1  UNL1        0.0055
     32 C         140.5937  142.8283  168.2914 C.ar    1  UNL1       -0.0019
     33 C         140.1184  142.1767  169.5560 C.ar    1  UNL1       -0.0002
     34 C         139.5474  140.7902  169.5166 C.ar    1  UNL1       -0.0000
     35 C         139.4518  140.0553  168.2124 C.ar    1  UNL1       -0.0002
     36 C         139.9270  140.7069  166.9478 C.ar    1  UNL1       -0.0019
@<TRIPOS>BOND
     1     7     8    2
     2     8     9   am
     3     9     1    1
     4     1     2   ar
     5     2     3   ar
     6     3     4   ar
     7     4    21    1
     8    22    21    1
     9    22    23    1
    10    23    24    1
    11    25    24    1
    12    25    28    1
    13    28    29    1
    14    28    31    1
    15    31    32   ar
    16    32    33   ar
    17    33    34   ar
    18    34    35   ar
    19    35    36   ar
    20    25    26    1
    21     4     5   ar
    22     5     6   ar
    23    11     8    1
    24    11    12    1
    25    12    13    1
    26    13    14    1
    27    14    15   ar
    28    15    16   ar
    29    16    17   ar
    30    17    18   ar
    31    18    19    2
    32    18    20   ar
    33     6     1   ar
    34    20    11    1
    35    26    22    1
    36    20    14   ar
    37    36    31   ar
    38     9    10    1
    39    29    30    1
    40    26    27    1
@<TRIPOS>MOLECULE
*****
 36 40 0 0 0
SMALL
GASTEIGER

@<TRIPOS>ATOM
      1 C         142.7146  137.9658  158.0900 C.ar    1  UNL1        0.0503
      2 C         142.8954  139.3511  157.5437 C.ar    1  UNL1        0.0143
      3 C         143.3219  140.4658  158.4522 C.ar    1  UNL1       -0.0029
      4 C         143.5676  140.1953  159.9069 C.ar    1  UNL1       -0.0208
      5 C         143.3868  138.8101  160.4532 C.ar    1  UNL1       -0.0029
      6 C         142.9603  137.6953  159.5447 C.ar    1  UNL1        0.0143
      7 O         144.4567  137.1599  155.7844 O.2     1  UNL1       -0.2727
      8 C         143.1592  136.4481  156.0286 C.2     1  UNL1        0.2469
      9 N         142.2881  136.8510  157.1815 N.am    1  UNL1       -0.2824
     10 H         141.4365  136.3838  157.3418 H       1  UNL1        0.1549
     11 C         142.7327  135.3333  155.1201 C.3     1  UNL1        0.1662
     12 C         142.2888  135.4784  153.6947 C.3     1  UNL1        0.0400
     13 C         141.9570  134.1125  153.1712 C.3     1  UNL1        0.0665
     14 C         142.1958  133.1231  154.2731 C.ar    1  UNL1        0.1229
     15 N         142.0387  131.6327  154.3353 N.ar    1  UNL1       -0.2306
     16 C         142.3609  130.8968  155.6020 C.ar    1  UNL1        0.1051
     17 C         142.8403  131.6513  156.8065 C.ar    1  UNL1        0.0814
     18 C         142.9975  133.1418  156.7443 C.ar    1  UNL1        0.2637
     19 O         143.4769  133.8963  157.9489 O.2     1  UNL1       -0.2669
     20 N         142.6752  133.8776  155.4776 N.ar    1  UNL1       -0.2773
     21 C         143.9941  141.3101  160.8155 C.3     1  UNL1        0.0420
     22 C         143.9402  141.1271  162.3034 C.3     1  UNL1        0.0585
     23 C         145.1213  141.0190  163.2218 C.3     1  UNL1        0.0175
     24 C         144.6068  140.8453  164.6201 C.3     1  UNL1        0.0199
     25 C         143.1078  140.8460  164.5659 C.3     1  UNL1        0.0855
     26 N         142.6958  141.0202  163.1341 N.3     1  UNL1       -0.2971
     27 H         142.1393  141.8693  163.0348 H       1  UNL1        0.1233
     28 C         142.1831  140.6984  165.7376 C.3     1  UNL1        0.1470
     29 O         142.4607  141.4421  167.0104 O.3     1  UNL1       -0.3787
     30 H         141.7718  141.2367  167.6617 H       1  UNL1        0.2108
     31 C         140.9808  139.8072  165.6367 C.ar    1  UNL1        0.0055
     32 C         139.6605  140.2642  166.1825 C.ar    1  UNL1       -0.0019
     33 C         138.4582  139.3730  166.0816 C.ar    1  UNL1       -0.0002
     34 C         138.5762  138.0248  165.4349 C.ar    1  UNL1       -0.0000
     35 C         139.8965  137.5677  164.8891 C.ar    1  UNL1       -0.0002
     36 C         141.0988  138.4588  164.9900 C.ar    1  UNL1       -0.0019
@<TRIPOS>BOND
     1     7     8    2
     2     8     9   am
     3     9     1    1
     4     1     2   ar
     5     2     3   ar
     6     3     4   ar
     7     4    21    1
     8    22    21    1
     9    22    23    1
    10    23    24    1
    11    25    24    1
    12    25    28    1
    13    28    29    1
    14    28    31    1
    15    31    32   ar
    16    32    33   ar
    17    33    34   ar
    18    34    35   ar
    19    35    36   ar
    20    25    26    1
    21     4     5   ar
    22     5     6   ar
    23    11     8    1
    24    11    12    1
    25    12    13    1
    26    13    14    1
    27    14    15   ar
    28    15    16   ar
    29    16    17   ar
    30    17    18   ar
    31    18    19    2
    32    18    20   ar
    33     6     1   ar
    34    20    11    1
    35    26    22    1
    36    20    14   ar
    37    36    31   ar
    38     9    10    1
    39    29    30    1
    40    26    27    1
@<TRIPOS>MOLECULE
*****
 36 40 0 0 0
SMALL
GASTEIGER

@<TRIPOS>ATOM
      1 C         142.9939  138.9284  157.2470 C.ar    1  UNL1        0.0503
      2 C         143.0357  138.9042  158.7462 C.ar    1  UNL1        0.0143
      3 C         143.5852  140.0787  159.5002 C.ar    1  UNL1       -0.0029
      4 C         144.0929  141.2773  158.7550 C.ar    1  UNL1       -0.0208
      5 C         144.0511  141.3015  157.2558 C.ar    1  UNL1       -0.0029
      6 C         143.5016  140.1270  156.5017 C.ar    1  UNL1        0.0143
      7 O         144.8150  137.2433  155.5606 O.2     1  UNL1       -0.2727
      8 C         143.3550  136.9113  155.6497 C.2     1  UNL1        0.2469
      9 N         142.4444  137.7539  156.4929 N.am    1  UNL1       -0.2824
     10 H         141.4861  137.5360  156.5514 H       1  UNL1        0.1549
     11 C         142.8055  135.7368  154.8956 C.3     1  UNL1        0.1662
     12 C         142.2387  135.7674  153.5072 C.3     1  UNL1        0.0400
     13 C         141.8093  134.3750  153.1511 C.3     1  UNL1        0.0665
     14 C         142.1107  133.4838  154.3195 C.ar    1  UNL1        0.1229
     15 N         141.9040  132.0148  154.5409 N.ar    1  UNL1       -0.2306
     16 C         142.3130  131.3874  155.8405 C.ar    1  UNL1        0.1051
     17 C         142.9288  132.2290  156.9187 C.ar    1  UNL1        0.0814
     18 C         143.1355  133.6981  156.6973 C.ar    1  UNL1        0.2637
     19 O         143.7512  134.5398  157.7755 O.2     1  UNL1       -0.2669
     20 N         142.7264  134.3255  155.3977 N.ar    1  UNL1       -0.2773
     21 C         144.6424  142.4519  159.5090 C.3     1  UNL1        0.0420
     22 C         144.0093  142.8766  160.8008 C.3     1  UNL1        0.0585
     23 C         144.4834  142.5127  162.1767 C.3     1  UNL1        0.0175
     24 C         143.5580  143.1509  163.1698 C.3     1  UNL1        0.0199
     25 C         142.5120  143.9093  162.4078 C.3     1  UNL1        0.0855
     26 N         142.7908  143.7397  160.9436 N.3     1  UNL1       -0.2971
     27 H         142.9594  144.6501  160.5157 H       1  UNL1        0.1233
     28 C         141.3849  144.6986  163.0049 C.3     1  UNL1        0.1470
     29 O         141.5076  146.1861  163.1543 O.3     1  UNL1       -0.3787
     30 H         140.6974  146.5388  163.5543 H       1  UNL1        0.2108
     31 C         140.1351  144.0005  163.4528 C.ar    1  UNL1        0.0055
     32 C         139.8880  142.5757  163.0543 C.ar    1  UNL1       -0.0019
     33 C         138.6381  141.8776  163.5021 C.ar    1  UNL1       -0.0002
     34 C         137.6354  142.6043  164.3485 C.ar    1  UNL1       -0.0000
     35 C         137.8825  144.0291  164.7470 C.ar    1  UNL1       -0.0002
     36 C         139.1322  144.7273  164.2992 C.ar    1  UNL1       -0.0019
@<TRIPOS>BOND
     1     7     8    2
     2     8     9   am
     3     9     1    1
     4     1     2   ar
     5     2     3   ar
     6     3     4   ar
     7     4    21    1
     8    22    21    1
     9    22    23    1
    10    23    24    1
    11    25    24    1
    12    25    28    1
    13    28    29    1
    14    28    31    1
    15    31    32   ar
    16    32    33   ar
    17    33    34   ar
    18    34    35   ar
    19    35    36   ar
    20    25    26    1
    21     4     5   ar
    22     5     6   ar
    23    11     8    1
    24    11    12    1
    25    12    13    1
    26    13    14    1
    27    14    15   ar
    28    15    16   ar
    29    16    17   ar
    30    17    18   ar
    31    18    19    2
    32    18    20   ar
    33     6     1   ar
    34    20    11    1
    35    26    22    1
    36    20    14   ar
    37    36    31   ar
    38     9    10    1
    39    29    30    1
    40    26    27    1
