@<TRIPOS>MOLECULE
*****
 40 44 0 0 0
SMALL
GASTEIGER

@<TRIPOS>ATOM
      1 N         141.1007  141.9647  160.2932 N.ar    1  UNL1       -0.3063
      2 C         140.7154  143.3358  159.8224 C.ar    1  UNL1        0.1240
      3 C         140.2967  144.1363  161.0198 C.ar    1  UNL1        0.1156
      4 C         140.4231  143.2600  162.2306 C.ar    1  UNL1        0.0966
      5 C         140.9200  141.9179  161.7815 C.ar    1  UNL1        0.1349
      6 C         141.1438  140.8264  162.7858 C.ar    1  UNL1        0.2818
      7 O         141.6407  139.4843  162.3368 O.2     1  UNL1       -0.2652
      8 N         140.8706  141.0771  164.2393 N.ar    1  UNL1       -0.2433
      9 C         140.3737  142.4194  164.6884 C.ar    1  UNL1        0.3342
     10 O         140.1794  142.7293  165.3966 O.2     1  UNL1       -0.2462
     11 N         140.1499  143.5107  163.6840 N.ar    1  UNL1       -0.2770
     12 C         139.6530  144.8529  164.1331 C.3     1  UNL1        0.1351
     13 N         140.7440  143.8211  158.4033 N.pl3   1  UNL1       -0.2925
     14 C         141.9651  144.5958  158.0049 C.3     1  UNL1        0.0936
     15 C         142.2915  145.2083  156.6751 C.3     1  UNL1        0.0385
     16 C         141.4773  145.1974  155.4153 C.3     1  UNL1        0.0704
     17 N         140.1358  144.5713  155.1742 N.3     1  UNL1       -0.2960
     18 C         139.2770  143.8015  156.1333 C.3     1  UNL1        0.0903
     19 C         139.5476  143.4676  157.5704 C.3     1  UNL1        0.1092
     20 H         140.2895  143.9291  154.3968 H       1  UNL1        0.1233
     21 C         139.8329  145.5628  161.0084 C.1     1  UNL1        0.1047
     22 N         139.3689  146.9892  160.9971 N.1     1  UNL1       -0.1907
     23 C         141.5821  140.8382  159.4276 C.3     1  UNL1        0.1332
     24 C         144.8452  140.8656  157.1689 C.3     1  UNL1        0.0261
     25 C         143.4035  140.9343  157.5774 C.2     1  UNL1       -0.0460
     26 C         142.3415  141.1679  156.5440 C.3     1  UNL1        0.0261
     27 C         143.0238  140.7695  159.0191 C.2     1  UNL1       -0.0102
     28 C         141.0944  139.9858  165.2437 C.3     1  UNL1        0.1411
     29 C         140.0108  139.6291  166.2176 C.ar    1  UNL1        0.0132
     30 C         138.8847  138.7342  165.7921 C.ar    1  UNL1        0.0854
     31 C         137.8011  138.3776  166.7661 C.ar    1  UNL1        0.1088
     32 N         137.8436  138.9158  168.1656 N.ar    1  UNL1       -0.2432
     33 C         138.9697  139.8107  168.5910 C.ar    1  UNL1        0.0811
     34 C         139.0123  140.3489  169.9906 C.ar    1  UNL1        0.0191
     35 C         140.1384  141.2438  170.4160 C.ar    1  UNL1        0.0015
     36 C         141.2220  141.6004  169.4420 C.ar    1  UNL1        0.0001
     37 C         141.1795  141.0622  168.0426 C.ar    1  UNL1        0.0013
     38 C         140.0533  140.1673  167.6171 C.ar    1  UNL1        0.0162
     39 C         138.8421  138.1960  164.3927 C.1     1  UNL1        0.1017
     40 N         138.7996  137.6578  162.9932 N.1     1  UNL1       -0.1908
@<TRIPOS>BOND
     1    24    25    1
     2    25    26    1
     3    25    27    2
     4    27    23    1
     5    23     1    1
     6     1     2   ar
     7     2    13    1
     8    13    14    1
     9    14    15    1
    10    15    16    1
    11    16    17    1
    12    17    18    1
    13    18    19    1
    14     2     3   ar
    15     3    21    1
    16    21    22    3
    17     3     4   ar
    18     4     5   ar
    19     5     6   ar
    20     6     7    2
    21     6     8   ar
    22     8    28    1
    23    28    29    1
    24    29    30   ar
    25    30    39    1
    26    39    40    3
    27    30    31   ar
    28    31    32   ar
    29    32    33   ar
    30    33    34   ar
    31    34    35   ar
    32    35    36   ar
    33    36    37   ar
    34    37    38   ar
    35     8     9   ar
    36     9    10    2
    37     9    11   ar
    38    11    12    1
    39     5     1   ar
    40    38    29   ar
    41    19    13    1
    42    11     4   ar
    43    38    33   ar
    44    17    20    1
@<TRIPOS>MOLECULE
*****
 40 44 0 0 0
SMALL
GASTEIGER

@<TRIPOS>ATOM
      1 N         141.4283  141.5342  161.4019 N.ar    1  UNL1       -0.3063
      2 C         140.9920  142.8155  160.7553 C.ar    1  UNL1        0.1240
      3 C         140.3890  143.6881  161.8159 C.ar    1  UNL1        0.1156
      4 C         140.4526  142.9461  163.1180 C.ar    1  UNL1        0.0966
      5 C         141.0948  141.6150  162.8621 C.ar    1  UNL1        0.1349
      6 C         141.2931  140.6483  163.9918 C.ar    1  UNL1        0.2818
      7 O         141.9354  139.3172  163.7359 O.2     1  UNL1       -0.2652
      8 N         140.8491  141.0128  165.3775 N.ar    1  UNL1       -0.2433
      9 C         140.2068  142.3440  165.6334 C.ar    1  UNL1        0.3342
     10 O         139.9155  142.7025  166.2830 O.2     1  UNL1       -0.2462
     11 N         140.0085  143.3106  164.5036 N.ar    1  UNL1       -0.2770
     12 C         139.3663  144.6418  164.7595 C.3     1  UNL1        0.1351
     13 N         141.1339  143.1631  159.3030 N.pl3   1  UNL1       -0.2925
     14 C         142.5111  143.5599  158.8603 C.3     1  UNL1        0.0936
     15 C         142.9744  143.9596  157.4909 C.3     1  UNL1        0.0385
     16 C         142.1749  144.0611  156.2257 C.3     1  UNL1        0.0704
     17 N         140.7148  143.7881  156.0176 N.3     1  UNL1       -0.2960
     18 C         139.6934  143.3460  157.0233 C.3     1  UNL1        0.0903
     19 C         139.8799  143.0679  158.4855 C.3     1  UNL1        0.1092
     20 H         140.6898  143.0687  155.2950 H       1  UNL1        0.1233
     21 C         139.8220  145.0615  161.6106 C.1     1  UNL1        0.1047
     22 N         139.2551  146.4350  161.4052 N.1     1  UNL1       -0.1907
     23 C         142.0829  140.3756  160.7098 C.3     1  UNL1        0.1332
     24 C         139.7943  138.2946  158.2234 C.3     1  UNL1        0.0261
     25 C         140.3788  138.8369  159.4940 C.2     1  UNL1       -0.0460
     26 C         139.8433  138.3825  160.8196 C.3     1  UNL1        0.0261
     27 C         141.4985  139.8334  159.4392 C.2     1  UNL1       -0.0102
     28 C         141.0474  140.0462  166.5072 C.3     1  UNL1        0.1411
     29 C         140.6231  140.4193  167.8967 C.ar    1  UNL1        0.0132
     30 C         139.2854  139.9817  168.4154 C.ar    1  UNL1        0.0854
     31 C         138.8611  140.3549  169.8050 C.ar    1  UNL1        0.1088
     32 N         139.7747  141.1656  170.6758 N.ar    1  UNL1       -0.2432
     33 C         141.1124  141.6032  170.1571 C.ar    1  UNL1        0.0811
     34 C         142.0259  142.4139  171.0279 C.ar    1  UNL1        0.0191
     35 C         143.3636  142.8514  170.5092 C.ar    1  UNL1        0.0015
     36 C         143.7878  142.4783  169.1197 C.ar    1  UNL1        0.0001
     37 C         142.8744  141.6676  168.2488 C.ar    1  UNL1        0.0013
     38 C         141.5366  141.2300  168.7675 C.ar    1  UNL1        0.0162
     39 C         138.3719  139.1711  167.5446 C.1     1  UNL1        0.1017
     40 N         137.4585  138.3604  166.6738 N.1     1  UNL1       -0.1908
@<TRIPOS>BOND
     1    24    25    1
     2    25    26    1
     3    25    27    2
     4    27    23    1
     5    23     1    1
     6     1     2   ar
     7     2    13    1
     8    13    14    1
     9    14    15    1
    10    15    16    1
    11    16    17    1
    12    17    18    1
    13    18    19    1
    14     2     3   ar
    15     3    21    1
    16    21    22    3
    17     3     4   ar
    18     4     5   ar
    19     5     6   ar
    20     6     7    2
    21     6     8   ar
    22     8    28    1
    23    28    29    1
    24    29    30   ar
    25    30    39    1
    26    39    40    3
    27    30    31   ar
    28    31    32   ar
    29    32    33   ar
    30    33    34   ar
    31    34    35   ar
    32    35    36   ar
    33    36    37   ar
    34    37    38   ar
    35     8     9   ar
    36     9    10    2
    37     9    11   ar
    38    11    12    1
    39     5     1   ar
    40    38    29   ar
    41    19    13    1
    42    11     4   ar
    43    38    33   ar
    44    17    20    1
@<TRIPOS>MOLECULE
*****
 40 44 0 0 0
SMALL
GASTEIGER

@<TRIPOS>ATOM
      1 N         140.4043  142.0625  164.7185 N.ar    1  UNL1       -0.3063
      2 C         141.4955  142.3080  165.7180 C.ar    1  UNL1        0.1240
      3 C         142.6338  142.9774  165.0065 C.ar    1  UNL1        0.1156
      4 C         142.2460  143.1457  163.5673 C.ar    1  UNL1        0.0966
      5 C         140.8682  142.5803  163.3893 C.ar    1  UNL1        0.1349
      6 C         140.2138  142.6099  162.0398 C.ar    1  UNL1        0.2818
      7 O         138.8360  142.0444  161.8619 O.2     1  UNL1       -0.2652
      8 N         140.9374  143.2049  160.8684 N.ar    1  UNL1       -0.2433
      9 C         142.3154  143.7704  161.0464 C.ar    1  UNL1        0.3342
     10 O         142.8393  144.1170  160.5557 O.2     1  UNL1       -0.2462
     11 N         142.9696  143.7408  162.3958 N.ar    1  UNL1       -0.2770
     12 C         144.3475  144.3062  162.5738 C.3     1  UNL1        0.1351
     13 N         141.4555  141.9473  167.1735 N.pl3   1  UNL1       -0.2925
     14 C         140.6179  142.8385  168.0420 C.3     1  UNL1        0.0936
     15 C         140.3762  142.7457  169.5195 C.3     1  UNL1        0.0385
     16 C         140.9125  141.7387  170.4934 C.3     1  UNL1        0.0704
     17 N         141.8229  140.5760  170.2303 N.3     1  UNL1       -0.2960
     18 C         142.4218  140.1330  168.9284 C.3     1  UNL1        0.0903
     19 C         142.2583  140.7433  167.5679 C.3     1  UNL1        0.1092
     20 H         141.3023  139.7638  170.5616 H       1  UNL1        0.1233
     21 C         143.9318  143.4038  165.6255 C.1     1  UNL1        0.1047
     22 N         145.2300  143.8302  166.2445 N.1     1  UNL1       -0.1907
     23 C         139.0815  141.4133  164.9990 C.3     1  UNL1        0.1332
     24 C         138.5506  137.5196  165.5534 C.3     1  UNL1        0.0261
     25 C         138.7461  138.9787  165.8415 C.2     1  UNL1       -0.0460
     26 C         138.8017  139.4620  167.2605 C.3     1  UNL1        0.0261
     27 C         138.8860  139.9543  164.7109 C.2     1  UNL1       -0.0102
     28 C         140.2832  143.2345  159.5190 C.3     1  UNL1        0.1411
     29 C         140.8947  142.4854  158.3723 C.ar    1  UNL1        0.0132
     30 C         141.7731  143.2031  157.3908 C.ar    1  UNL1        0.0854
     31 C         142.3847  142.4539  156.2442 C.ar    1  UNL1        0.1088
     32 N         142.1178  140.9870  156.0791 N.ar    1  UNL1       -0.2432
     33 C         141.2394  140.2694  157.0606 C.ar    1  UNL1        0.0811
     34 C         140.9725  138.8026  156.8955 C.ar    1  UNL1        0.0191
     35 C         140.0941  138.0850  157.8770 C.ar    1  UNL1        0.0015
     36 C         139.4826  138.8341  159.0236 C.ar    1  UNL1        0.0001
     37 C         139.7494  140.3009  159.1887 C.ar    1  UNL1        0.0013
     38 C         140.6279  141.0186  158.2072 C.ar    1  UNL1        0.0162
     39 C         142.0400  144.6698  157.5559 C.1     1  UNL1        0.1017
     40 N         142.3069  146.1366  157.7210 N.1     1  UNL1       -0.1908
@<TRIPOS>BOND
     1    24    25    1
     2    25    26    1
     3    25    27    2
     4    27    23    1
     5    23     1    1
     6     1     2   ar
     7     2    13    1
     8    13    14    1
     9    14    15    1
    10    15    16    1
    11    16    17    1
    12    17    18    1
    13    18    19    1
    14     2     3   ar
    15     3    21    1
    16    21    22    3
    17     3     4   ar
    18     4     5   ar
    19     5     6   ar
    20     6     7    2
    21     6     8   ar
    22     8    28    1
    23    28    29    1
    24    29    30   ar
    25    30    39    1
    26    39    40    3
    27    30    31   ar
    28    31    32   ar
    29    32    33   ar
    30    33    34   ar
    31    34    35   ar
    32    35    36   ar
    33    36    37   ar
    34    37    38   ar
    35     8     9   ar
    36     9    10    2
    37     9    11   ar
    38    11    12    1
    39     5     1   ar
    40    38    29   ar
    41    19    13    1
    42    11     4   ar
    43    38    33   ar
    44    17    20    1
@<TRIPOS>MOLECULE
*****
 40 44 0 0 0
SMALL
GASTEIGER

@<TRIPOS>ATOM
      1 N         143.2237  141.5064  161.9799 N.ar    1  UNL1       -0.3063
      2 C         142.6719  142.3514  160.8702 C.ar    1  UNL1        0.1240
      3 C         141.6565  143.2850  161.4595 C.ar    1  UNL1        0.1156
      4 C         141.5807  143.0170  162.9334 C.ar    1  UNL1        0.0966
      5 C         142.5494  141.9178  163.2550 C.ar    1  UNL1        0.1349
      6 C         142.6922  141.4334  164.6675 C.ar    1  UNL1        0.2818
      7 O         143.6608  140.3342  164.9891 O.2     1  UNL1       -0.2652
      8 N         141.8664  142.0483  165.7583 N.ar    1  UNL1       -0.2433
      9 C         140.8977  143.1476  165.4367 C.ar    1  UNL1        0.3342
     10 O         140.3894  143.5822  165.8705 O.2     1  UNL1       -0.2462
     11 N         140.7549  143.6319  164.0242 N.ar    1  UNL1       -0.2770
     12 C         139.7863  144.7311  163.7026 C.3     1  UNL1        0.1351
     13 N         143.0663  142.2759  159.4249 N.pl3   1  UNL1       -0.2925
     14 C         141.9849  141.8500  158.4766 C.3     1  UNL1        0.0936
     15 C         142.0600  141.6793  156.9883 C.3     1  UNL1        0.0385
     16 C         143.2350  141.8925  156.0806 C.3     1  UNL1        0.0704
     17 N         144.6251  142.3289  156.4371 N.3     1  UNL1       -0.2960
     18 C         145.1835  142.6600  157.7893 C.3     1  UNL1        0.0903
     19 C         144.4898  142.6365  159.1191 C.3     1  UNL1        0.1092
     20 H         144.7779  143.1723  155.8840 H       1  UNL1        0.1233
     21 C         140.8571  144.3071  160.7070 C.1     1  UNL1        0.1047
     22 N         140.0577  145.3293  159.9546 N.1     1  UNL1       -0.1907
     23 C         144.2668  140.4377  161.8392 C.3     1  UNL1        0.1332
     24 C         143.0121  137.0760  160.1437 C.3     1  UNL1        0.0261
     25 C         143.1943  138.1742  161.1490 C.2     1  UNL1       -0.0460
     26 C         142.4862  138.1070  162.4697 C.3     1  UNL1        0.0261
     27 C         144.0846  139.3395  160.8338 C.2     1  UNL1       -0.0102
     28 C         142.0091  141.5640  167.1708 C.3     1  UNL1        0.1411
     29 C         140.8154  141.0281  167.9042 C.ar    1  UNL1        0.0132
     30 C         140.5132  141.5043  169.2942 C.ar    1  UNL1        0.0854
     31 C         139.3195  140.9684  170.0276 C.ar    1  UNL1        0.1088
     32 N         138.4280  139.9564  169.3710 N.ar    1  UNL1       -0.2432
     33 C         138.7303  139.4802  167.9811 C.ar    1  UNL1        0.0811
     34 C         137.8388  138.4681  167.3246 C.ar    1  UNL1        0.0191
     35 C         138.1410  137.9920  165.9346 C.ar    1  UNL1        0.0015
     36 C         139.3347  138.5279  165.2012 C.ar    1  UNL1        0.0001
     37 C         140.2262  139.5399  165.8577 C.ar    1  UNL1        0.0013
     38 C         139.9240  140.0161  167.2477 C.ar    1  UNL1        0.0162
     39 C         141.4047  142.5164  169.9507 C.1     1  UNL1        0.1017
     40 N         142.2962  143.5284  170.6072 N.1     1  UNL1       -0.1908
@<TRIPOS>BOND
     1    24    25    1
     2    25    26    1
     3    25    27    2
     4    27    23    1
     5    23     1    1
     6     1     2   ar
     7     2    13    1
     8    13    14    1
     9    14    15    1
    10    15    16    1
    11    16    17    1
    12    17    18    1
    13    18    19    1
    14     2     3   ar
    15     3    21    1
    16    21    22    3
    17     3     4   ar
    18     4     5   ar
    19     5     6   ar
    20     6     7    2
    21     6     8   ar
    22     8    28    1
    23    28    29    1
    24    29    30   ar
    25    30    39    1
    26    39    40    3
    27    30    31   ar
    28    31    32   ar
    29    32    33   ar
    30    33    34   ar
    31    34    35   ar
    32    35    36   ar
    33    36    37   ar
    34    37    38   ar
    35     8     9   ar
    36     9    10    2
    37     9    11   ar
    38    11    12    1
    39     5     1   ar
    40    38    29   ar
    41    19    13    1
    42    11     4   ar
    43    38    33   ar
    44    17    20    1
@<TRIPOS>MOLECULE
*****
 40 44 0 0 0
SMALL
GASTEIGER

@<TRIPOS>ATOM
      1 N         140.2937  142.1889  164.9266 N.ar    1  UNL1       -0.3063
      2 C         141.4563  142.4019  165.8503 C.ar    1  UNL1        0.1240
      3 C         142.5482  143.0756  165.0733 C.ar    1  UNL1        0.1156
      4 C         142.0605  143.2790  163.6694 C.ar    1  UNL1        0.0966
      5 C         140.6672  142.7310  163.5788 C.ar    1  UNL1        0.1349
      6 C         139.9185  142.7963  162.2807 C.ar    1  UNL1        0.2818
      7 O         138.5251  142.2483  162.1901 O.2     1  UNL1       -0.2652
      8 N         140.5631  143.4098  161.0731 N.ar    1  UNL1       -0.2433
      9 C         141.9565  143.9578  161.1638 C.ar    1  UNL1        0.3342
     10 O         142.4479  144.3100  160.6442 O.2     1  UNL1       -0.2462
     11 N         142.7052  143.8924  162.4619 N.ar    1  UNL1       -0.2770
     12 C         144.0985  144.4405  162.5525 C.3     1  UNL1        0.1351
     13 N         141.5163  142.0099  167.2970 N.pl3   1  UNL1       -0.2925
     14 C         142.3485  140.8018  167.6099 C.3     1  UNL1        0.0936
     15 C         142.6062  140.1632  168.9425 C.3     1  UNL1        0.0385
     16 C         142.0953  140.5752  170.2913 C.3     1  UNL1        0.0704
     17 N         141.2006  141.7273  170.6407 N.3     1  UNL1       -0.2960
     18 C         140.5958  142.7521  169.7275 C.3     1  UNL1        0.0903
     19 C         140.7363  142.8779  168.2393 C.3     1  UNL1        0.1092
     20 H         141.7371  142.2718  171.3161 H       1  UNL1        0.1233
     21 C         143.8919  143.4757  165.6065 C.1     1  UNL1        0.1047
     22 N         145.2358  143.8759  166.1396 N.1     1  UNL1       -0.1907
     23 C         138.9871  141.5465  165.2875 C.3     1  UNL1        0.1332
     24 C         138.4462  137.6445  165.7689 C.3     1  UNL1        0.0261
     25 C         138.6823  139.0921  166.0830 C.2     1  UNL1       -0.0460
     26 C         138.8497  139.5329  167.5071 C.3     1  UNL1        0.0261
     27 C         138.7510  140.0989  164.9733 C.2     1  UNL1       -0.0102
     28 C         139.8144  143.4752  159.7750 C.3     1  UNL1        0.1411
     29 C         140.4837  143.0518  158.5011 C.ar    1  UNL1        0.0132
     30 C         140.9664  141.6406  158.3406 C.ar    1  UNL1        0.0854
     31 C         141.6356  141.2172  157.0667 C.ar    1  UNL1        0.1088
     32 N         141.8221  142.2050  155.9532 N.ar    1  UNL1       -0.2432
     33 C         141.3394  143.6161  156.1138 C.ar    1  UNL1        0.0811
     34 C         141.5258  144.6038  155.0004 C.ar    1  UNL1        0.0191
     35 C         141.0431  146.0149  155.1609 C.ar    1  UNL1        0.0015
     36 C         140.3739  146.4383  156.4348 C.ar    1  UNL1        0.0001
     37 C         140.1874  145.4506  157.5482 C.ar    1  UNL1        0.0013
     38 C         140.6702  144.0395  157.3877 C.ar    1  UNL1        0.0162
     39 C         140.7799  140.6530  159.4540 C.1     1  UNL1        0.1017
     40 N         140.5934  139.6653  160.5673 N.1     1  UNL1       -0.1908
@<TRIPOS>BOND
     1    24    25    1
     2    25    26    1
     3    25    27    2
     4    27    23    1
     5    23     1    1
     6     1     2   ar
     7     2    13    1
     8    13    14    1
     9    14    15    1
    10    15    16    1
    11    16    17    1
    12    17    18    1
    13    18    19    1
    14     2     3   ar
    15     3    21    1
    16    21    22    3
    17     3     4   ar
    18     4     5   ar
    19     5     6   ar
    20     6     7    2
    21     6     8   ar
    22     8    28    1
    23    28    29    1
    24    29    30   ar
    25    30    39    1
    26    39    40    3
    27    30    31   ar
    28    31    32   ar
    29    32    33   ar
    30    33    34   ar
    31    34    35   ar
    32    35    36   ar
    33    36    37   ar
    34    37    38   ar
    35     8     9   ar
    36     9    10    2
    37     9    11   ar
    38    11    12    1
    39     5     1   ar
    40    38    29   ar
    41    19    13    1
    42    11     4   ar
    43    38    33   ar
    44    17    20    1
@<TRIPOS>MOLECULE
*****
 40 44 0 0 0
SMALL
GASTEIGER

@<TRIPOS>ATOM
      1 N         141.0633  141.1346  163.5506 N.ar    1  UNL1       -0.3063
      2 C         140.5902  141.8140  164.8014 C.ar    1  UNL1        0.1240
      3 C         139.9424  143.1087  164.4090 C.ar    1  UNL1        0.1156
      4 C         140.0150  143.2295  162.9157 C.ar    1  UNL1        0.0966
      5 C         140.7077  142.0094  162.3852 C.ar    1  UNL1        0.1349
      6 C         140.9253  141.8526  160.9093 C.ar    1  UNL1        0.2818
      7 O         141.6181  140.6325  160.3788 O.2     1  UNL1       -0.2652
      8 N         140.4502  142.9159  159.9640 N.ar    1  UNL1       -0.2433
      9 C         139.7574  144.1360  160.4946 C.ar    1  UNL1        0.3342
     10 O         139.4448  144.7865  160.1560 O.2     1  UNL1       -0.2462
     11 N         139.5398  144.2928  161.9704 N.ar    1  UNL1       -0.2770
     12 C         138.8471  145.5129  162.5009 C.3     1  UNL1        0.1351
     13 N         140.7390  141.2906  166.1993 N.pl3   1  UNL1       -0.2925
     14 C         142.0242  141.6372  166.8907 C.3     1  UNL1        0.0936
     15 C         142.4708  141.2687  168.2744 C.3     1  UNL1        0.0385
     16 C         141.7423  140.4624  169.3085 C.3     1  UNL1        0.0704
     17 N         140.3875  139.8257  169.2143 N.3     1  UNL1       -0.2960
     18 C         139.4264  139.8379  168.0627 C.3     1  UNL1        0.0903
     19 C         139.5828  140.4899  166.7209 C.3     1  UNL1        0.1092
     20 H         139.8616  140.2279  169.9903 H       1  UNL1        0.1233
     21 C         139.3295  144.1074  165.3455 C.1     1  UNL1        0.1047
     22 N         138.7166  145.1062  166.2820 N.1     1  UNL1       -0.1907
     23 C         141.7681  139.8125  163.4779 C.3     1  UNL1        0.1332
     24 C         145.3404  138.9526  164.9776 C.3     1  UNL1        0.0261
     25 C         143.8510  139.0185  164.8125 C.2     1  UNL1       -0.0460
     26 C         142.9551  138.3564  165.8170 C.3     1  UNL1        0.0261
     27 C         143.2575  139.7465  163.6431 C.2     1  UNL1       -0.0102
     28 C         140.6677  142.7592  158.4882 C.3     1  UNL1        0.1411
     29 C         139.5145  142.9057  157.5403 C.ar    1  UNL1        0.0132
     30 C         138.5263  141.7881  157.3830 C.ar    1  UNL1        0.0854
     31 C         137.3730  141.9347  156.4351 C.ar    1  UNL1        0.1088
     32 N         137.2079  143.1988  155.6445 N.ar    1  UNL1       -0.2432
     33 C         138.1961  144.3162  155.8019 C.ar    1  UNL1        0.0811
     34 C         138.0310  145.5803  155.0113 C.ar    1  UNL1        0.0191
     35 C         139.0191  146.6977  155.1686 C.ar    1  UNL1        0.0015
     36 C         140.1724  146.5512  156.1165 C.ar    1  UNL1        0.0001
     37 C         140.3375  145.2872  156.9071 C.ar    1  UNL1        0.0013
     38 C         139.3493  144.1697  156.7497 C.ar    1  UNL1        0.0162
     39 C         138.6914  140.5242  158.1735 C.1     1  UNL1        0.1017
     40 N         138.8565  139.2602  158.9641 N.1     1  UNL1       -0.1908
@<TRIPOS>BOND
     1    24    25    1
     2    25    26    1
     3    25    27    2
     4    27    23    1
     5    23     1    1
     6     1     2   ar
     7     2    13    1
     8    13    14    1
     9    14    15    1
    10    15    16    1
    11    16    17    1
    12    17    18    1
    13    18    19    1
    14     2     3   ar
    15     3    21    1
    16    21    22    3
    17     3     4   ar
    18     4     5   ar
    19     5     6   ar
    20     6     7    2
    21     6     8   ar
    22     8    28    1
    23    28    29    1
    24    29    30   ar
    25    30    39    1
    26    39    40    3
    27    30    31   ar
    28    31    32   ar
    29    32    33   ar
    30    33    34   ar
    31    34    35   ar
    32    35    36   ar
    33    36    37   ar
    34    37    38   ar
    35     8     9   ar
    36     9    10    2
    37     9    11   ar
    38    11    12    1
    39     5     1   ar
    40    38    29   ar
    41    19    13    1
    42    11     4   ar
    43    38    33   ar
    44    17    20    1
@<TRIPOS>MOLECULE
*****
 40 44 0 0 0
SMALL
GASTEIGER

@<TRIPOS>ATOM
      1 N         139.1271  140.6796  160.1459 N.ar    1  UNL1       -0.3063
      2 C         139.2526  142.0373  159.5205 C.ar    1  UNL1        0.1240
      3 C         139.5677  143.0212  160.6080 C.ar    1  UNL1        0.1156
      4 C         139.6369  142.2717  161.9054 C.ar    1  UNL1        0.0966
      5 C         139.3646  140.8246  161.6198 C.ar    1  UNL1        0.1349
      6 C         139.3682  139.8256  162.7389 C.ar    1  UNL1        0.2818
      7 O         139.0959  138.3785  162.4533 O.2     1  UNL1       -0.2652
      8 N         139.6439  140.2739  164.1435 N.ar    1  UNL1       -0.2433
      9 C         139.9162  141.7211  164.4291 C.ar    1  UNL1        0.3342
     10 O         140.0784  142.1338  165.0916 O.2     1  UNL1       -0.2462
     11 N         139.9127  142.7200  163.3101 N.ar    1  UNL1       -0.2770
     12 C         140.1850  144.1671  163.5957 C.3     1  UNL1        0.1351
     13 N         139.0913  142.3551  158.0634 N.pl3   1  UNL1       -0.2925
     14 C         140.3650  142.5191  157.2883 C.3     1  UNL1        0.0936
     15 C         140.5397  142.8355  155.8325 C.3     1  UNL1        0.0385
     16 C         139.4838  143.0659  154.7922 C.3     1  UNL1        0.0704
     17 N         137.9925  143.0370  154.9509 N.3     1  UNL1       -0.2960
     18 C         137.1888  142.7704  156.1890 C.3     1  UNL1        0.0903
     19 C         137.6778  142.4670  157.5743 C.3     1  UNL1        0.1092
     20 H         137.6784  142.3307  154.2854 H       1  UNL1        0.1233
     21 C         139.7768  144.4958  160.4294 C.1     1  UNL1        0.1047
     22 N         139.9860  145.9704  160.2507 N.1     1  UNL1       -0.1907
     23 C         138.8184  139.4015  159.4240 C.3     1  UNL1        0.1332
     24 C         141.2835  137.4986  156.9639 C.3     1  UNL1        0.0261
     25 C         140.1667  138.3699  157.4574 C.2     1  UNL1       -0.0460
     26 C         139.2813  139.0811  156.4773 C.3     1  UNL1        0.0261
     27 C         139.9352  138.5302  158.9306 C.2     1  UNL1       -0.0102
     28 C         139.6475  139.2750  165.2625 C.3     1  UNL1        0.1411
     29 C         140.8180  139.2003  166.1975 C.ar    1  UNL1        0.0132
     30 C         142.1514  138.7325  165.6940 C.ar    1  UNL1        0.0854
     31 C         143.3220  138.6578  166.6290 C.ar    1  UNL1        0.1088
     32 N         143.1592  139.0509  168.0674 N.ar    1  UNL1       -0.2432
     33 C         141.8259  139.5187  168.5708 C.ar    1  UNL1        0.0811
     34 C         141.6631  139.9117  170.0093 C.ar    1  UNL1        0.0191
     35 C         140.3298  140.3795  170.5127 C.ar    1  UNL1        0.0015
     36 C         139.1592  140.4542  169.5777 C.ar    1  UNL1        0.0001
     37 C         139.3220  140.0612  168.1393 C.ar    1  UNL1        0.0013
     38 C         140.6553  139.5934  167.6359 C.ar    1  UNL1        0.0162
     39 C         142.3141  138.3395  164.2556 C.1     1  UNL1        0.1017
     40 N         142.4769  137.9465  162.8172 N.1     1  UNL1       -0.1908
@<TRIPOS>BOND
     1    24    25    1
     2    25    26    1
     3    25    27    2
     4    27    23    1
     5    23     1    1
     6     1     2   ar
     7     2    13    1
     8    13    14    1
     9    14    15    1
    10    15    16    1
    11    16    17    1
    12    17    18    1
    13    18    19    1
    14     2     3   ar
    15     3    21    1
    16    21    22    3
    17     3     4   ar
    18     4     5   ar
    19     5     6   ar
    20     6     7    2
    21     6     8   ar
    22     8    28    1
    23    28    29    1
    24    29    30   ar
    25    30    39    1
    26    39    40    3
    27    30    31   ar
    28    31    32   ar
    29    32    33   ar
    30    33    34   ar
    31    34    35   ar
    32    35    36   ar
    33    36    37   ar
    34    37    38   ar
    35     8     9   ar
    36     9    10    2
    37     9    11   ar
    38    11    12    1
    39     5     1   ar
    40    38    29   ar
    41    19    13    1
    42    11     4   ar
    43    38    33   ar
    44    17    20    1
@<TRIPOS>MOLECULE
*****
 40 44 0 0 0
SMALL
GASTEIGER

@<TRIPOS>ATOM
      1 N         141.1617  142.7568  161.2342 N.ar    1  UNL1       -0.3063
      2 C         141.4978  142.6613  159.7755 C.ar    1  UNL1        0.1240
      3 C         142.2445  141.3792  159.5548 C.ar    1  UNL1        0.1156
      4 C         142.3699  140.6824  160.8772 C.ar    1  UNL1        0.0966
      5 C         141.7007  141.5338  161.9151 C.ar    1  UNL1        0.1349
      6 C         141.6686  141.0854  163.3462 C.ar    1  UNL1        0.2818
      7 O         140.9995  141.9369  164.3841 O.2     1  UNL1       -0.2652
      8 N         142.3057  139.7856  163.7393 N.ar    1  UNL1       -0.2433
      9 C         142.9749  138.9342  162.7014 C.ar    1  UNL1        0.3342
     10 O         143.3555  138.2340  162.7209 O.2     1  UNL1       -0.2462
     11 N         143.0070  139.3826  161.2704 N.ar    1  UNL1       -0.2770
     12 C         143.6762  138.5311  160.2325 C.3     1  UNL1        0.1351
     13 N         141.1485  143.6707  158.7223 N.pl3   1  UNL1       -0.2925
     14 C         139.8863  143.4029  157.9573 C.3     1  UNL1        0.0936
     15 C         139.2714  144.2125  156.8545 C.3     1  UNL1        0.0385
     16 C         139.7668  145.4901  156.2442 C.3     1  UNL1        0.0704
     17 N         140.9995  146.2734  156.5860 N.3     1  UNL1       -0.2960
     18 C         142.0412  145.9727  157.6226 C.3     1  UNL1        0.0903
     19 C         142.1075  144.8143  158.5733 C.3     1  UNL1        0.1092
     20 H         140.6528  147.2002  156.8335 H       1  UNL1        0.1233
     21 C         142.7730  140.8813  158.2423 C.1     1  UNL1        0.1047
     22 N         143.3014  140.3835  156.9297 N.1     1  UNL1       -0.1907
     23 C         140.4174  143.8785  161.8959 C.3     1  UNL1        0.1332
     24 C         137.2012  143.9728  164.2192 C.3     1  UNL1        0.0261
     25 C         138.6021  144.1890  163.7285 C.2     1  UNL1       -0.0460
     26 C         139.5887  144.9318  164.5800 C.3     1  UNL1        0.0261
     27 C         139.0165  143.6624  162.3866 C.2     1  UNL1       -0.0102
     28 C         142.2737  139.3372  165.1704 C.3     1  UNL1        0.1411
     29 C         140.9683  139.2706  165.9064 C.ar    1  UNL1        0.0132
     30 C         139.8012  138.5495  165.2998 C.ar    1  UNL1        0.0854
     31 C         138.4959  138.4829  166.0358 C.ar    1  UNL1        0.1088
     32 N         138.3577  139.1374  167.3784 N.ar    1  UNL1       -0.2432
     33 C         139.5248  139.8584  167.9850 C.ar    1  UNL1        0.0811
     34 C         139.3867  140.5129  169.3277 C.ar    1  UNL1        0.0191
     35 C         140.5538  141.2339  169.9342 C.ar    1  UNL1        0.0015
     36 C         141.8591  141.3005  169.1982 C.ar    1  UNL1        0.0001
     37 C         141.9973  140.6461  167.8556 C.ar    1  UNL1        0.0013
     38 C         140.8301  139.9250  167.2490 C.ar    1  UNL1        0.0162
     39 C         139.9394  137.8951  163.9572 C.1     1  UNL1        0.1017
     40 N         140.0776  137.2407  162.6146 N.1     1  UNL1       -0.1908
@<TRIPOS>BOND
     1    24    25    1
     2    25    26    1
     3    25    27    2
     4    27    23    1
     5    23     1    1
     6     1     2   ar
     7     2    13    1
     8    13    14    1
     9    14    15    1
    10    15    16    1
    11    16    17    1
    12    17    18    1
    13    18    19    1
    14     2     3   ar
    15     3    21    1
    16    21    22    3
    17     3     4   ar
    18     4     5   ar
    19     5     6   ar
    20     6     7    2
    21     6     8   ar
    22     8    28    1
    23    28    29    1
    24    29    30   ar
    25    30    39    1
    26    39    40    3
    27    30    31   ar
    28    31    32   ar
    29    32    33   ar
    30    33    34   ar
    31    34    35   ar
    32    35    36   ar
    33    36    37   ar
    34    37    38   ar
    35     8     9   ar
    36     9    10    2
    37     9    11   ar
    38    11    12    1
    39     5     1   ar
    40    38    29   ar
    41    19    13    1
    42    11     4   ar
    43    38    33   ar
    44    17    20    1
@<TRIPOS>MOLECULE
*****
 40 44 0 0 0
SMALL
GASTEIGER

@<TRIPOS>ATOM
      1 N         142.6304  140.1928  159.9497 N.ar    1  UNL1       -0.3063
      2 C         142.4986  141.4818  159.1939 C.ar    1  UNL1        0.1240
      3 C         142.0961  142.5504  160.1666 C.ar    1  UNL1        0.1156
      4 C         141.9792  141.9219  161.5235 C.ar    1  UNL1        0.0966
      5 C         142.3094  140.4649  161.3895 C.ar    1  UNL1        0.1349
      6 C         142.2752  139.5740  162.5958 C.ar    1  UNL1        0.2818
      7 O         142.6054  138.1169  162.4618 O.2     1  UNL1       -0.2652
      8 N         141.9107  140.1401  163.9362 N.ar    1  UNL1       -0.2433
      9 C         141.5805  141.5972  164.0702 C.ar    1  UNL1        0.3342
     10 O         141.3705  142.0634  164.6818 O.2     1  UNL1       -0.2462
     11 N         141.6147  142.4881  162.8639 N.ar    1  UNL1       -0.2770
     12 C         141.2845  143.9451  162.9980 C.3     1  UNL1        0.1351
     13 N         142.7288  141.6692  157.7235 N.pl3   1  UNL1       -0.2925
     14 C         141.5208  141.5051  156.8496 C.3     1  UNL1        0.0936
     15 C         141.4221  141.6272  155.3578 C.3     1  UNL1        0.0385
     16 C         142.5072  141.9436  154.3716 C.3     1  UNL1        0.0704
     17 N         143.9588  142.2160  154.6335 N.3     1  UNL1       -0.2960
     18 C         144.6839  142.2392  155.9464 C.3     1  UNL1        0.0903
     19 C         144.1365  141.9959  157.3217 C.3     1  UNL1        0.1092
     20 H         144.1211  143.1410  154.2356 H       1  UNL1        0.1233
     21 C         141.8532  143.9940  159.8398 C.1     1  UNL1        0.1047
     22 N         141.6101  145.4377  159.5128 N.1     1  UNL1       -0.1907
     23 C         143.0156  138.8650  159.3679 C.3     1  UNL1        0.1332
     24 C         141.1182  136.9477  156.4570 C.3     1  UNL1        0.0261
     25 C         142.1404  137.7757  157.1776 C.2     1  UNL1       -0.0460
     26 C         143.3098  138.3426  156.4284 C.3     1  UNL1        0.0261
     27 C         141.9934  138.0370  158.6473 C.2     1  UNL1       -0.0102
     28 C         141.8764  139.2493  165.1425 C.3     1  UNL1        0.1411
     29 C         140.6979  139.2872  166.0696 C.ar    1  UNL1        0.0132
     30 C         139.3768  138.7317  165.6264 C.ar    1  UNL1        0.0854
     31 C         138.1982  138.7696  166.5535 C.ar    1  UNL1        0.1088
     32 N         138.3407  139.3630  167.9238 N.ar    1  UNL1       -0.2432
     33 C         139.6617  139.9184  168.3670 C.ar    1  UNL1        0.0811
     34 C         139.8042  140.5117  169.7373 C.ar    1  UNL1        0.0191
     35 C         141.1252  141.0672  170.1804 C.ar    1  UNL1        0.0015
     36 C         142.3038  141.0293  169.2533 C.ar    1  UNL1        0.0001
     37 C         142.1613  140.4360  167.8831 C.ar    1  UNL1        0.0013
     38 C         140.8403  139.8805  167.4398 C.ar    1  UNL1        0.0162
     39 C         139.2344  138.1384  164.2561 C.1     1  UNL1        0.1017
     40 N         139.0920  137.5451  162.8859 N.1     1  UNL1       -0.1908
@<TRIPOS>BOND
     1    24    25    1
     2    25    26    1
     3    25    27    2
     4    27    23    1
     5    23     1    1
     6     1     2   ar
     7     2    13    1
     8    13    14    1
     9    14    15    1
    10    15    16    1
    11    16    17    1
    12    17    18    1
    13    18    19    1
    14     2     3   ar
    15     3    21    1
    16    21    22    3
    17     3     4   ar
    18     4     5   ar
    19     5     6   ar
    20     6     7    2
    21     6     8   ar
    22     8    28    1
    23    28    29    1
    24    29    30   ar
    25    30    39    1
    26    39    40    3
    27    30    31   ar
    28    31    32   ar
    29    32    33   ar
    30    33    34   ar
    31    34    35   ar
    32    35    36   ar
    33    36    37   ar
    34    37    38   ar
    35     8     9   ar
    36     9    10    2
    37     9    11   ar
    38    11    12    1
    39     5     1   ar
    40    38    29   ar
    41    19    13    1
    42    11     4   ar
    43    38    33   ar
    44    17    20    1
