@<TRIPOS>MOLECULE
*****
 31 34 0 0 0
SMALL
GASTEIGER

@<TRIPOS>ATOM
      1 N         142.4896  145.0331  162.2904 N.3     1  UNL1       -0.2863
      2 H         142.6269  144.7758  161.3130 H       1  UNL1        0.1240
      3 C         141.2685  144.3014  162.7633 C.3     1  UNL1        0.1337
      4 C         140.3682  144.7224  163.8868 C.3     1  UNL1        0.0466
      5 C         139.2767  143.7013  164.0136 C.3     1  UNL1        0.0957
      6 N         139.5025  142.6493  162.9685 N.am    1  UNL1       -0.2743
      7 C         140.7335  143.0201  162.1958 C.2     1  UNL1        0.2402
      8 O         141.3255  142.2457  161.0557 O.2     1  UNL1       -0.2734
      9 C         138.6474  141.4389  162.7368 C.3     1  UNL1        0.1202
     10 C         138.8788  140.1924  163.5386 C.ar    1  UNL1       -0.0015
     11 C         139.8578  139.1627  163.0581 C.ar    1  UNL1       -0.0026
     12 C         140.0893  137.9162  163.8599 C.ar    1  UNL1        0.0006
     13 C         139.3416  137.6996  165.1420 C.ar    1  UNL1        0.0114
     14 C         138.3624  138.7294  165.6225 C.ar    1  UNL1        0.0574
     15 CL        137.6148  138.5128  166.9047 Cl      1  UNL1       -0.0823
     16 C         138.1310  139.9759  164.8208 C.ar    1  UNL1        0.0088
     17 C         143.8042  144.8241  162.9820 C.3     1  UNL1        0.1151
     18 N         144.6440  142.6795  164.3386 N.ar    1  UNL1       -0.3070
     19 C         145.2392  141.3542  163.9650 C.ar    1  UNL1        0.1786
     20 N         145.3553  141.3030  162.4703 N.ar    1  UNL1       -0.2226
     21 C         144.8318  142.5966  161.9202 C.ar    1  UNL1        0.1147
     22 C         144.3922  143.4473  163.0748 C.ar    1  UNL1        0.0739
     23 C         144.3519  143.1536  165.7313 C.3     1  UNL1        0.1340
     24 C         141.0510  141.2371  168.1148 C.ar    1  UNL1        0.0684
     25 C         142.2824  141.7396  168.8083 C.ar    1  UNL1        0.0100
     26 C         143.3827  142.3785  168.0138 C.ar    1  UNL1       -0.0017
     27 C         143.2516  142.5148  166.5258 C.ar    1  UNL1        0.0005
     28 C         142.0202  142.0123  165.8323 C.ar    1  UNL1       -0.0017
     29 C         140.9199  141.3734  166.6268 C.ar    1  UNL1        0.0100
     30 N         138.8504  139.9594  169.7037 N.1     1  UNL1       -0.1908
     31 C         139.9507  140.5982  168.9092 C.1     1  UNL1        0.1004
@<TRIPOS>BOND
     1    30    31    3
     2    31    24    1
     3    24    25   ar
     4    25    26   ar
     5    26    27   ar
     6    27    23    1
     7    23    18    1
     8    18    19   ar
     9    19    20   ar
    10    20    21   ar
    11    21    22   ar
    12    22    17    1
    13    17     1    1
    14     3     1    1
    15     3     4    1
    16     4     5    1
    17     5     6    1
    18     6     9    1
    19     9    10    1
    20    10    11   ar
    21    11    12   ar
    22    12    13   ar
    23    13    14   ar
    24    14    15    1
    25    14    16   ar
    26     6     7   am
    27     7     8    2
    28    27    28   ar
    29    28    29   ar
    30    29    24   ar
    31    22    18   ar
    32     7     3    1
    33    16    10   ar
    34     1     2    1
@<TRIPOS>MOLECULE
*****
 31 34 0 0 0
SMALL
GASTEIGER

@<TRIPOS>ATOM
      1 N         136.9132  141.2734  163.1092 N.3     1  UNL1       -0.2863
      2 H         136.2828  141.3357  162.3097 H       1  UNL1        0.1240
      3 C         137.7802  140.0702  162.8842 C.3     1  UNL1        0.1337
      4 C         137.7197  139.1484  161.7025 C.3     1  UNL1        0.0466
      5 C         138.7621  138.0861  161.8895 C.3     1  UNL1        0.0957
      6 N         139.4666  138.3513  163.1868 N.am    1  UNL1       -0.2743
      7 C         138.8598  139.5776  163.8016 C.2     1  UNL1        0.2402
      8 O         139.2620  140.2016  165.1050 O.2     1  UNL1       -0.2734
      9 C         140.5822  137.5338  163.7674 C.3     1  UNL1        0.1202
     10 C         141.9146  138.1678  164.0378 C.ar    1  UNL1       -0.0015
     11 C         142.5429  138.0432  165.3941 C.ar    1  UNL1       -0.0026
     12 C         143.8752  138.6771  165.6645 C.ar    1  UNL1        0.0006
     13 C         144.5791  139.4356  164.5786 C.ar    1  UNL1        0.0114
     14 C         143.9507  139.5602  163.2223 C.ar    1  UNL1        0.0574
     15 CL        144.6546  140.3187  162.1364 Cl      1  UNL1       -0.0823
     16 C         142.6184  138.9263  162.9519 C.ar    1  UNL1        0.0088
     17 C         137.5374  142.6273  163.2750 C.3     1  UNL1        0.1151
     18 N         139.6904  144.0309  162.5405 N.ar    1  UNL1       -0.3070
     19 C         140.4085  144.2718  161.2458 C.ar    1  UNL1        0.1786
     20 N         139.6882  143.5160  160.1686 N.ar    1  UNL1       -0.2226
     21 C         138.5250  142.8080  160.7977 C.ar    1  UNL1        0.1147
     22 C         138.5264  143.1262  162.2636 C.ar    1  UNL1        0.0739
     23 C         140.0697  144.5955  163.8774 C.3     1  UNL1        0.1340
     24 C         141.8141  141.9117  167.0404 C.ar    1  UNL1        0.0684
     25 C         140.4984  142.5923  167.2764 C.ar    1  UNL1        0.0100
     26 C         139.9170  143.4869  166.2221 C.ar    1  UNL1       -0.0017
     27 C         140.6512  143.7009  164.9317 C.ar    1  UNL1        0.0005
     28 C         141.9668  143.0203  164.6957 C.ar    1  UNL1       -0.0017
     29 C         142.5483  142.1257  165.7500 C.ar    1  UNL1        0.0100
     30 N         142.9770  140.1225  169.1490 N.1     1  UNL1       -0.1908
     31 C         142.3955  141.0171  168.0947 C.1     1  UNL1        0.1004
@<TRIPOS>BOND
     1    30    31    3
     2    31    24    1
     3    24    25   ar
     4    25    26   ar
     5    26    27   ar
     6    27    23    1
     7    23    18    1
     8    18    19   ar
     9    19    20   ar
    10    20    21   ar
    11    21    22   ar
    12    22    17    1
    13    17     1    1
    14     3     1    1
    15     3     4    1
    16     4     5    1
    17     5     6    1
    18     6     9    1
    19     9    10    1
    20    10    11   ar
    21    11    12   ar
    22    12    13   ar
    23    13    14   ar
    24    14    15    1
    25    14    16   ar
    26     6     7   am
    27     7     8    2
    28    27    28   ar
    29    28    29   ar
    30    29    24   ar
    31    22    18   ar
    32     7     3    1
    33    16    10   ar
    34     1     2    1
@<TRIPOS>MOLECULE
*****
 31 34 0 0 0
SMALL
GASTEIGER

@<TRIPOS>ATOM
      1 N         140.0191  137.3208  162.5147 N.3     1  UNL1       -0.2863
      2 H         140.1781  137.4932  161.5220 H       1  UNL1        0.1240
      3 C         141.1486  137.9748  163.2541 C.3     1  UNL1        0.1337
      4 C         141.5001  137.7595  164.6963 C.3     1  UNL1        0.0466
      5 C         142.6936  138.6106  165.0146 C.3     1  UNL1        0.0957
      6 N         143.0797  139.3518  163.7690 N.am    1  UNL1       -0.2743
      7 C         142.1249  138.9589  162.6809 C.2     1  UNL1        0.2402
      8 O         142.1431  139.4618  161.2679 O.2     1  UNL1       -0.2734
      9 C         144.2204  140.3165  163.6350 C.3     1  UNL1        0.1202
     10 C         143.9824  141.7878  163.8057 C.ar    1  UNL1       -0.0015
     11 C         144.6550  142.5318  164.9210 C.ar    1  UNL1       -0.0026
     12 C         144.4171  144.0029  165.0918 C.ar    1  UNL1        0.0006
     13 C         143.5066  144.7300  164.1471 C.ar    1  UNL1        0.0114
     14 C         142.8340  143.9859  163.0318 C.ar    1  UNL1        0.0574
     15 CL        141.9235  144.7130  162.0871 Cl      1  UNL1       -0.0823
     16 C         143.0719  142.5148  162.8610 C.ar    1  UNL1        0.0088
     17 C         138.6026  137.7217  162.8024 C.3     1  UNL1        0.1151
     18 N         137.9677  140.1265  163.7816 N.ar    1  UNL1       -0.3070
     19 C         137.5597  141.4408  163.1847 C.ar    1  UNL1        0.1786
     20 N         137.5248  141.2818  161.6935 N.ar    1  UNL1       -0.2226
     21 C         137.9113  139.8692  161.3688 C.ar    1  UNL1        0.1147
     22 C         138.1849  139.1552  162.6592 C.ar    1  UNL1        0.0739
     23 C         138.1299  139.8347  165.2439 C.3     1  UNL1        0.1340
     24 C         141.6116  141.5638  167.5107 C.ar    1  UNL1        0.0684
     25 C         140.8227  140.4310  168.0976 C.ar    1  UNL1        0.0100
     26 C         139.6621  139.8546  167.3420 C.ar    1  UNL1       -0.0017
     27 C         139.2905  140.4110  165.9995 C.ar    1  UNL1        0.0005
     28 C         140.0793  141.5438  165.4126 C.ar    1  UNL1       -0.0017
     29 C         141.2399  142.1202  166.1682 C.ar    1  UNL1        0.0100
     30 N         143.9327  142.7165  169.0219 N.1     1  UNL1       -0.1908
     31 C         142.7721  142.1401  168.2663 C.1     1  UNL1        0.1004
@<TRIPOS>BOND
     1    30    31    3
     2    31    24    1
     3    24    25   ar
     4    25    26   ar
     5    26    27   ar
     6    27    23    1
     7    23    18    1
     8    18    19   ar
     9    19    20   ar
    10    20    21   ar
    11    21    22   ar
    12    22    17    1
    13    17     1    1
    14     3     1    1
    15     3     4    1
    16     4     5    1
    17     5     6    1
    18     6     9    1
    19     9    10    1
    20    10    11   ar
    21    11    12   ar
    22    12    13   ar
    23    13    14   ar
    24    14    15    1
    25    14    16   ar
    26     6     7   am
    27     7     8    2
    28    27    28   ar
    29    28    29   ar
    30    29    24   ar
    31    22    18   ar
    32     7     3    1
    33    16    10   ar
    34     1     2    1
@<TRIPOS>MOLECULE
*****
 31 34 0 0 0
SMALL
GASTEIGER

@<TRIPOS>ATOM
      1 N         137.0576  140.4837  161.4968 N.3     1  UNL1       -0.2863
      2 H         136.0681  140.3705  161.7170 H       1  UNL1        0.1240
      3 C         137.6339  141.3879  162.5457 C.3     1  UNL1        0.1337
      4 C         137.4889  141.2218  164.0294 C.3     1  UNL1        0.0466
      5 C         138.2218  142.3484  164.6957 C.3     1  UNL1        0.0957
      6 N         138.8196  143.2106  163.6238 N.am    1  UNL1       -0.2743
      7 C         138.4563  142.6171  162.2950 C.2     1  UNL1        0.2402
      8 O         138.8468  143.1577  160.9514 O.2     1  UNL1       -0.2734
      9 C         139.6372  144.4490  163.8423 C.3     1  UNL1        0.1202
     10 C         141.1106  144.3390  164.1019 C.ar    1  UNL1       -0.0015
     11 C         142.0454  145.3866  163.5743 C.ar    1  UNL1       -0.0026
     12 C         143.5186  145.2766  163.8339 C.ar    1  UNL1        0.0006
     13 C         144.0570  144.1189  164.6212 C.ar    1  UNL1        0.0114
     14 C         143.1221  143.0712  165.1489 C.ar    1  UNL1        0.0574
     15 CL        143.6605  141.9136  165.9362 Cl      1  UNL1       -0.0823
     16 C         141.6489  143.1812  164.8893 C.ar    1  UNL1        0.0088
     17 C         137.6186  139.1059  161.3037 C.3     1  UNL1        0.1151
     18 N         139.8861  138.1612  162.3576 N.ar    1  UNL1       -0.3070
     19 C         141.3327  138.1908  161.9620 C.ar    1  UNL1        0.1786
     20 N         141.4441  138.9413  160.6679 N.ar    1  UNL1       -0.2226
     21 C         140.0662  139.3755  160.2638 C.ar    1  UNL1        0.1147
     22 C         139.1034  138.8933  161.3081 C.ar    1  UNL1        0.0739
     23 C         139.3213  137.5132  163.5869 C.3     1  UNL1        0.1340
     24 C         139.3522  139.7186  167.5092 C.ar    1  UNL1        0.0684
     25 C         140.4894  139.8863  166.5455 C.ar    1  UNL1        0.0100
     26 C         140.4791  139.1512  165.2381 C.ar    1  UNL1       -0.0017
     27 C         139.3316  138.2483  164.8943 C.ar    1  UNL1        0.0005
     28 C         138.1945  138.0806  165.8580 C.ar    1  UNL1       -0.0017
     29 C         138.2048  138.8158  167.1655 C.ar    1  UNL1        0.0100
     30 N         139.3729  141.1889  170.1241 N.1     1  UNL1       -0.1908
     31 C         139.3626  140.4538  168.8167 C.1     1  UNL1        0.1004
@<TRIPOS>BOND
     1    30    31    3
     2    31    24    1
     3    24    25   ar
     4    25    26   ar
     5    26    27   ar
     6    27    23    1
     7    23    18    1
     8    18    19   ar
     9    19    20   ar
    10    20    21   ar
    11    21    22   ar
    12    22    17    1
    13    17     1    1
    14     3     1    1
    15     3     4    1
    16     4     5    1
    17     5     6    1
    18     6     9    1
    19     9    10    1
    20    10    11   ar
    21    11    12   ar
    22    12    13   ar
    23    13    14   ar
    24    14    15    1
    25    14    16   ar
    26     6     7   am
    27     7     8    2
    28    27    28   ar
    29    28    29   ar
    30    29    24   ar
    31    22    18   ar
    32     7     3    1
    33    16    10   ar
    34     1     2    1
@<TRIPOS>MOLECULE
*****
 31 34 0 0 0
SMALL
GASTEIGER

@<TRIPOS>ATOM
      1 N         141.0634  145.5820  163.3743 N.3     1  UNL1       -0.2863
      2 H         141.2127  145.6094  162.3656 H       1  UNL1        0.1240
      3 C         139.8411  144.7448  163.6085 C.3     1  UNL1        0.1337
      4 C         138.9021  144.8616  164.7724 C.3     1  UNL1        0.0466
      5 C         137.8238  143.8327  164.6031 C.3     1  UNL1        0.0957
      6 N         138.0964  143.0800  163.3346 N.am    1  UNL1       -0.2743
      7 C         139.3431  143.6437  162.7199 C.2     1  UNL1        0.2402
      8 O         139.9800  143.1866  161.4410 O.2     1  UNL1       -0.2734
      9 C         137.2677  141.9603  162.7784 C.3     1  UNL1        0.1202
     10 C         137.7749  140.5499  162.8393 C.ar    1  UNL1       -0.0015
     11 C         137.6589  139.6587  161.6385 C.ar    1  UNL1       -0.0026
     12 C         138.1661  138.2483  161.6993 C.ar    1  UNL1        0.0006
     13 C         138.7894  137.7293  162.9611 C.ar    1  UNL1        0.0114
     14 C         138.9055  138.6206  164.1620 C.ar    1  UNL1        0.0574
     15 CL        139.5288  138.1016  165.4238 Cl      1  UNL1       -0.0823
     16 C         138.3983  140.0309  164.1012 C.ar    1  UNL1        0.0088
     17 C         142.3714  145.1899  163.9951 C.3     1  UNL1        0.1151
     18 N         142.8754  142.5958  163.5931 N.ar    1  UNL1       -0.3070
     19 C         143.9209  141.8218  162.8462 C.ar    1  UNL1        0.1786
     20 N         144.8579  142.8044  162.2085 N.ar    1  UNL1       -0.2226
     21 C         144.3915  144.1858  162.5613 C.ar    1  UNL1        0.1147
     22 C         143.1663  144.0569  163.4170 C.ar    1  UNL1        0.0739
     23 C         141.7387  142.0115  164.3782 C.3     1  UNL1        0.1340
     24 C         141.7715  142.2117  168.8736 C.ar    1  UNL1        0.0684
     25 C         143.0633  142.2436  168.1120 C.ar    1  UNL1        0.0100
     26 C         143.0524  142.1769  166.6135 C.ar    1  UNL1       -0.0017
     27 C         141.7496  142.0783  165.8766 C.ar    1  UNL1        0.0005
     28 C         140.4578  142.0464  166.6382 C.ar    1  UNL1       -0.0017
     29 C         140.4687  142.1131  168.1367 C.ar    1  UNL1        0.0100
     30 N         141.7934  142.3452  171.8705 N.1     1  UNL1       -0.1908
     31 C         141.7824  142.2785  170.3721 C.1     1  UNL1        0.1004
@<TRIPOS>BOND
     1    30    31    3
     2    31    24    1
     3    24    25   ar
     4    25    26   ar
     5    26    27   ar
     6    27    23    1
     7    23    18    1
     8    18    19   ar
     9    19    20   ar
    10    20    21   ar
    11    21    22   ar
    12    22    17    1
    13    17     1    1
    14     3     1    1
    15     3     4    1
    16     4     5    1
    17     5     6    1
    18     6     9    1
    19     9    10    1
    20    10    11   ar
    21    11    12   ar
    22    12    13   ar
    23    13    14   ar
    24    14    15    1
    25    14    16   ar
    26     6     7   am
    27     7     8    2
    28    27    28   ar
    29    28    29   ar
    30    29    24   ar
    31    22    18   ar
    32     7     3    1
    33    16    10   ar
    34     1     2    1
@<TRIPOS>MOLECULE
*****
 31 34 0 0 0
SMALL
GASTEIGER

@<TRIPOS>ATOM
      1 N         145.1955  140.3912  162.2951 N.3     1  UNL1       -0.2863
      2 H         145.8057  139.5997  162.4991 H       1  UNL1        0.1240
      3 C         143.8608  139.8221  161.9146 C.3     1  UNL1        0.1337
      4 C         143.1953  139.9535  160.5768 C.3     1  UNL1        0.0466
      5 C         141.8805  139.2343  160.6405 C.3     1  UNL1        0.0957
      6 N         141.7335  138.6585  162.0177 N.am    1  UNL1       -0.2743
      7 C         142.9573  139.0218  162.8051 C.2     1  UNL1        0.2402
      8 O         143.2299  138.6499  164.2326 O.2     1  UNL1       -0.2734
      9 C         140.5672  137.8596  162.5194 C.3     1  UNL1        0.1202
     10 C         139.6988  138.4062  163.6136 C.ar    1  UNL1       -0.0015
     11 C         139.3969  137.5684  164.8205 C.ar    1  UNL1       -0.0026
     12 C         138.5285  138.1149  165.9148 C.ar    1  UNL1        0.0006
     13 C         137.9622  139.4992  165.8020 C.ar    1  UNL1        0.0114
     14 C         138.2641  140.3371  164.5950 C.ar    1  UNL1        0.0574
     15 CL        137.6978  141.7215  164.4822 Cl      1  UNL1       -0.0823
     16 C         139.1325  139.7906  163.5008 C.ar    1  UNL1        0.0088
     17 C         145.3055  141.3335  163.4570 C.3     1  UNL1        0.1151
     18 N         144.2819  143.5547  164.5356 N.ar    1  UNL1       -0.3070
     19 C         143.7240  144.8373  163.9935 C.ar    1  UNL1        0.1786
     20 N         143.7937  144.7769  162.4962 N.ar    1  UNL1       -0.2226
     21 C         144.3946  143.4569  162.1131 C.ar    1  UNL1        0.1147
     22 C         144.6963  142.7016  163.3734 C.ar    1  UNL1        0.0739
     23 C         144.4038  143.1894  165.9853 C.3     1  UNL1        0.1340
     24 C         141.0023  141.1144  168.0767 C.ar    1  UNL1        0.0684
     25 C         142.1201  141.7149  168.8766 C.ar    1  UNL1        0.0100
     26 C         143.2539  142.4065  168.1795 C.ar    1  UNL1       -0.0017
     27 C         143.2700  142.4977  166.6824 C.ar    1  UNL1        0.0005
     28 C         142.1523  141.8972  165.8824 C.ar    1  UNL1       -0.0017
     29 C         141.0184  141.2055  166.5796 C.ar    1  UNL1        0.0100
     30 N         138.7347  139.7310  169.4710 N.1     1  UNL1       -0.1908
     31 C         139.8685  140.4227  168.7738 C.1     1  UNL1        0.1004
@<TRIPOS>BOND
     1    30    31    3
     2    31    24    1
     3    24    25   ar
     4    25    26   ar
     5    26    27   ar
     6    27    23    1
     7    23    18    1
     8    18    19   ar
     9    19    20   ar
    10    20    21   ar
    11    21    22   ar
    12    22    17    1
    13    17     1    1
    14     3     1    1
    15     3     4    1
    16     4     5    1
    17     5     6    1
    18     6     9    1
    19     9    10    1
    20    10    11   ar
    21    11    12   ar
    22    12    13   ar
    23    13    14   ar
    24    14    15    1
    25    14    16   ar
    26     6     7   am
    27     7     8    2
    28    27    28   ar
    29    28    29   ar
    30    29    24   ar
    31    22    18   ar
    32     7     3    1
    33    16    10   ar
    34     1     2    1
@<TRIPOS>MOLECULE
*****
 31 34 0 0 0
SMALL
GASTEIGER

@<TRIPOS>ATOM
      1 N         143.2206  144.8855  162.0791 N.3     1  UNL1       -0.2863
      2 H         144.1148  145.2163  162.4415 H       1  UNL1        0.1240
      3 C         143.4399  143.4805  161.6018 C.3     1  UNL1        0.1337
      4 C         143.3157  143.0007  160.1861 C.3     1  UNL1        0.0466
      5 C         143.6210  141.5323  160.1658 C.3     1  UNL1        0.0957
      6 N         143.9339  141.1045  161.5690 N.am    1  UNL1       -0.2743
      7 C         143.8220  142.3085  162.4565 C.2     1  UNL1        0.2402
      8 O         144.0518  142.3358  163.9386 O.2     1  UNL1       -0.2734
      9 C         144.2953  139.7164  162.0077 C.3     1  UNL1        0.1202
     10 C         143.4315  138.9942  162.9989 C.ar    1  UNL1       -0.0015
     11 C         142.3305  138.0955  162.5195 C.ar    1  UNL1       -0.0026
     12 C         141.4666  137.3734  163.5106 C.ar    1  UNL1        0.0006
     13 C         141.7039  137.5500  164.9811 C.ar    1  UNL1        0.0114
     14 C         142.8050  138.4488  165.4605 C.ar    1  UNL1        0.0574
     15 CL        143.0423  138.6254  166.9310 Cl      1  UNL1       -0.0823
     16 C         143.6688  139.1709  164.4694 C.ar    1  UNL1        0.0088
     17 C         142.1941  145.1670  163.1361 C.3     1  UNL1        0.1151
     18 N         140.0574  143.5623  163.0699 N.ar    1  UNL1       -0.3070
     19 C         138.6180  143.7282  162.6817 C.ar    1  UNL1        0.1786
     20 N         138.4170  145.1484  162.2424 N.ar    1  UNL1       -0.2226
     21 C         139.7323  145.8602  162.3592 C.ar    1  UNL1        0.1147
     22 C         140.7460  144.8800  162.8706 C.ar    1  UNL1        0.0739
     23 C         140.6960  142.3005  163.5697 C.3     1  UNL1        0.1340
     24 C         139.8709  140.8656  167.7542 C.ar    1  UNL1        0.0684
     25 C         140.6337  142.1382  167.5345 C.ar    1  UNL1        0.0100
     26 C         140.9088  142.6165  166.1396 C.ar    1  UNL1       -0.0017
     27 C         140.4209  141.8222  164.9645 C.ar    1  UNL1        0.0005
     28 C         139.6581  140.5495  165.1842 C.ar    1  UNL1       -0.0017
     29 C         139.3831  140.0712  166.5791 C.ar    1  UNL1        0.0100
     30 N         139.3208  139.9090  170.5439 N.1     1  UNL1       -0.1908
     31 C         139.5959  140.3873  169.1490 C.1     1  UNL1        0.1004
@<TRIPOS>BOND
     1    30    31    3
     2    31    24    1
     3    24    25   ar
     4    25    26   ar
     5    26    27   ar
     6    27    23    1
     7    23    18    1
     8    18    19   ar
     9    19    20   ar
    10    20    21   ar
    11    21    22   ar
    12    22    17    1
    13    17     1    1
    14     3     1    1
    15     3     4    1
    16     4     5    1
    17     5     6    1
    18     6     9    1
    19     9    10    1
    20    10    11   ar
    21    11    12   ar
    22    12    13   ar
    23    13    14   ar
    24    14    15    1
    25    14    16   ar
    26     6     7   am
    27     7     8    2
    28    27    28   ar
    29    28    29   ar
    30    29    24   ar
    31    22    18   ar
    32     7     3    1
    33    16    10   ar
    34     1     2    1
@<TRIPOS>MOLECULE
*****
 31 34 0 0 0
SMALL
GASTEIGER

@<TRIPOS>ATOM
      1 N         145.2820  142.5975  161.8380 N.3     1  UNL1       -0.2863
      2 H         145.8942  142.4247  161.0407 H       1  UNL1        0.1240
      3 C         143.8864  142.7007  161.2979 C.3     1  UNL1        0.1337
      4 C         143.3049  141.8696  160.1929 C.3     1  UNL1        0.0466
      5 C         141.8864  142.3084  159.9801 C.3     1  UNL1        0.0957
      6 N         141.5913  143.4108  160.9536 N.am    1  UNL1       -0.2743
      7 C         142.8273  143.6533  161.7680 C.2     1  UNL1        0.2402
      8 O         142.9779  144.6698  162.8607 O.2     1  UNL1       -0.2734
      9 C         140.2888  144.1423  161.0889 C.3     1  UNL1        0.1202
     10 C         139.3659  143.8263  162.2285 C.ar    1  UNL1       -0.0015
     11 C         138.4228  142.6642  162.1297 C.ar    1  UNL1       -0.0026
     12 C         137.5000  142.3483  163.2692 C.ar    1  UNL1        0.0006
     13 C         137.5204  143.1945  164.5076 C.ar    1  UNL1        0.0114
     14 C         138.4635  144.3567  164.6064 C.ar    1  UNL1        0.0574
     15 CL        138.4839  145.2029  165.8447 Cl      1  UNL1       -0.0823
     16 C         139.3864  144.6726  163.4668 C.ar    1  UNL1        0.0088
     17 C         145.6121  141.5603  162.8701 C.3     1  UNL1        0.1151
     18 N         143.6249  141.0244  164.5757 N.ar    1  UNL1       -0.3070
     19 C         142.6963  139.8664  164.7922 C.ar    1  UNL1        0.1786
     20 N         143.0261  138.8117  163.7778 N.ar    1  UNL1       -0.2226
     21 C         144.1586  139.3179  162.9343 C.ar    1  UNL1        0.1147
     22 C         144.5286  140.6854  163.4274 C.ar    1  UNL1        0.0739
     23 C         143.6461  142.2977  165.3682 C.3     1  UNL1        0.1340
     24 C         140.9462  142.7720  168.9369 C.ar    1  UNL1        0.0684
     25 C         142.4149  142.5392  169.1333 C.ar    1  UNL1        0.0100
     26 C         143.3149  142.3811  167.9437 C.ar    1  UNL1       -0.0017
     27 C         142.7461  142.4558  166.5577 C.ar    1  UNL1        0.0005
     28 C         141.2774  142.6887  166.3614 C.ar    1  UNL1       -0.0017
     29 C         140.3774  142.8468  167.5510 C.ar    1  UNL1        0.0100
     30 N         139.1463  143.0883  171.3160 N.1     1  UNL1       -0.1908
     31 C         140.0462  142.9301  170.1265 C.1     1  UNL1        0.1004
@<TRIPOS>BOND
     1    30    31    3
     2    31    24    1
     3    24    25   ar
     4    25    26   ar
     5    26    27   ar
     6    27    23    1
     7    23    18    1
     8    18    19   ar
     9    19    20   ar
    10    20    21   ar
    11    21    22   ar
    12    22    17    1
    13    17     1    1
    14     3     1    1
    15     3     4    1
    16     4     5    1
    17     5     6    1
    18     6     9    1
    19     9    10    1
    20    10    11   ar
    21    11    12   ar
    22    12    13   ar
    23    13    14   ar
    24    14    15    1
    25    14    16   ar
    26     6     7   am
    27     7     8    2
    28    27    28   ar
    29    28    29   ar
    30    29    24   ar
    31    22    18   ar
    32     7     3    1
    33    16    10   ar
    34     1     2    1
@<TRIPOS>MOLECULE
*****
 31 34 0 0 0
SMALL
GASTEIGER

@<TRIPOS>ATOM
      1 N         143.0966  143.6136  160.7072 N.3     1  UNL1       -0.2863
      2 H         142.6808  143.4273  159.7947 H       1  UNL1        0.1240
      3 C         141.9945  143.4944  161.7177 C.3     1  UNL1        0.1337
      4 C         141.8042  144.3680  162.9221 C.3     1  UNL1        0.0466
      5 C         140.5812  143.8941  163.6499 C.3     1  UNL1        0.0957
      6 N         140.0157  142.7276  162.8953 N.am    1  UNL1       -0.2743
      7 C         140.8891  142.4806  161.7012 C.2     1  UNL1        0.2402
      8 O         140.6918  141.4080  160.6713 O.2     1  UNL1       -0.2734
      9 C         138.7916  141.9455  163.2693 C.3     1  UNL1        0.1202
     10 C         138.9292  140.6306  163.9779 C.ar    1  UNL1       -0.0015
     11 C         138.1119  140.3503  165.2040 C.ar    1  UNL1       -0.0026
     12 C         138.2495  139.0355  165.9127 C.ar    1  UNL1        0.0006
     13 C         139.2043  138.0009  165.3952 C.ar    1  UNL1        0.0114
     14 C         140.0216  138.2811  164.1690 C.ar    1  UNL1        0.0574
     15 CL        140.9764  137.2465  163.6515 Cl      1  UNL1       -0.0823
     16 C         139.8841  139.5960  163.4603 C.ar    1  UNL1        0.0088
     17 C         144.3116  142.7406  160.8159 C.3     1  UNL1        0.1151
     18 N         144.4559  140.2615  161.8049 N.ar    1  UNL1       -0.3070
     19 C         144.1897  138.8873  161.2656 C.ar    1  UNL1        0.1786
     20 N         143.7453  139.0269  159.8397 N.ar    1  UNL1       -0.2226
     21 C         143.7369  140.4874  159.4977 C.ar    1  UNL1        0.1147
     22 C         144.1760  141.2504  160.7122 C.ar    1  UNL1        0.0739
     23 C         144.9203  140.5893  163.1929 C.3     1  UNL1        0.1340
     24 C         142.1198  140.0888  166.6796 C.ar    1  UNL1        0.0684
     25 C         142.1711  141.3928  165.9400 C.ar    1  UNL1        0.0100
     26 C         143.1046  141.5596  164.7778 C.ar    1  UNL1       -0.0017
     27 C         143.9868  140.4224  164.3552 C.ar    1  UNL1        0.0005
     28 C         143.9355  139.1185  165.0947 C.ar    1  UNL1       -0.0017
     29 C         143.0020  138.9517  166.2570 C.ar    1  UNL1        0.0100
     30 N         140.2528  139.7552  169.0040 N.1     1  UNL1       -0.1908
     31 C         141.1863  139.9220  167.8418 C.1     1  UNL1        0.1004
@<TRIPOS>BOND
     1    30    31    3
     2    31    24    1
     3    24    25   ar
     4    25    26   ar
     5    26    27   ar
     6    27    23    1
     7    23    18    1
     8    18    19   ar
     9    19    20   ar
    10    20    21   ar
    11    21    22   ar
    12    22    17    1
    13    17     1    1
    14     3     1    1
    15     3     4    1
    16     4     5    1
    17     5     6    1
    18     6     9    1
    19     9    10    1
    20    10    11   ar
    21    11    12   ar
    22    12    13   ar
    23    13    14   ar
    24    14    15    1
    25    14    16   ar
    26     6     7   am
    27     7     8    2
    28    27    28   ar
    29    28    29   ar
    30    29    24   ar
    31    22    18   ar
    32     7     3    1
    33    16    10   ar
    34     1     2    1
