@<TRIPOS>MOLECULE
*****
 22 24 0 0 0
SMALL
GASTEIGER

@<TRIPOS>ATOM
      1 C         142.6974  139.0464  164.7592 C.ar    1  UNL1        0.2213
      2 N         143.6786  138.5687  165.7882 N.ar    1  UNL1       -0.0540
      3 O         143.2413  139.0923  167.1241 O.2     1  UNL1       -0.3324
      4 C         141.9896  139.8936  166.9207 C.ar    1  UNL1        0.2601
      5 N         141.6535  139.8652  165.4591 N.ar    1  UNL1       -0.1856
      6 C         141.2108  140.5993  167.9909 C.ar    1  UNL1        0.0590
      7 C         141.6048  141.9827  168.4166 C.ar    1  UNL1        0.0344
      8 C         140.8260  142.6883  169.4868 C.ar    1  UNL1        0.1410
      9 F         141.2200  144.0716  169.9125 F       1  UNL1       -0.2041
     10 C         139.6532  142.0107  170.1314 C.ar    1  UNL1        0.0399
     11 C         139.2593  140.6275  169.7057 C.ar    1  UNL1        0.0708
     12 C         140.0381  139.9217  168.6355 C.ar    1  UNL1        0.0152
     13 C         138.0864  139.9497  170.3503 C.1     1  UNL1        0.1005
     14 N         136.9137  139.2721  170.9949 N.1     1  UNL1       -0.1908
     15 C         142.8571  138.1758  160.3471 C.ar    1  UNL1        0.0876
     16 C         144.0833  138.6633  161.0602 C.ar    1  UNL1        0.0135
     17 C         144.0301  138.9535  162.5309 C.ar    1  UNL1        0.0231
     18 C         142.7506  138.7562  163.2885 C.ar    1  UNL1        0.1203
     19 N         141.5244  138.2688  162.5753 N.ar    1  UNL1       -0.2399
     20 C         141.5776  137.9786  161.1046 C.ar    1  UNL1        0.1092
     21 N         142.9636  137.5955  157.4057 N.1     1  UNL1       -0.1908
     22 C         142.9103  137.8857  158.8764 C.1     1  UNL1        0.1020
@<TRIPOS>BOND
     1    21    22    3
     2    22    15    1
     3    15    16   ar
     4    16    17   ar
     5    17    18   ar
     6    18     1    1
     7     1     2   ar
     8     2     3   ar
     9     3     4   ar
    10     4     6    1
    11     6     7   ar
    12     7     8   ar
    13     8     9    1
    14     8    10   ar
    15    10    11   ar
    16    11    13    1
    17    13    14    3
    18    11    12   ar
    19     4     5   ar
    20    18    19   ar
    21    19    20   ar
    22    20    15   ar
    23     5     1   ar
    24    12     6   ar
@<TRIPOS>MOLECULE
*****
 22 24 0 0 0
SMALL
GASTEIGER

@<TRIPOS>ATOM
      1 C         142.2984  143.2524  164.4547 C.ar    1  UNL1        0.2213
      2 N         143.6570  143.3561  165.0819 N.ar    1  UNL1       -0.0540
      3 O         143.6109  142.6537  166.4065 O.2     1  UNL1       -0.3324
      4 C         142.2237  142.1159  166.5979 C.ar    1  UNL1        0.2601
      5 N         141.4126  142.4859  165.3916 N.ar    1  UNL1       -0.1856
      6 C         141.7338  141.3437  167.7869 C.ar    1  UNL1        0.0590
      7 C         140.4199  141.6948  168.4197 C.ar    1  UNL1        0.0344
      8 C         139.9300  140.9225  169.6086 C.ar    1  UNL1        0.1410
      9 F         138.6161  141.2736  170.2414 F       1  UNL1       -0.2041
     10 C         140.7539  139.7992  170.1647 C.ar    1  UNL1        0.0399
     11 C         142.0677  139.4481  169.5319 C.ar    1  UNL1        0.0708
     12 C         142.5577  140.2203  168.3430 C.ar    1  UNL1        0.0152
     13 C         142.8917  138.3247  170.0881 C.1     1  UNL1        0.1005
     14 N         143.7156  137.2014  170.6441 N.1     1  UNL1       -0.1908
     15 C         141.0918  144.9437  160.4630 C.ar    1  UNL1        0.0876
     16 C         140.4922  145.4941  161.7229 C.ar    1  UNL1        0.0135
     17 C         140.8944  144.9303  163.0535 C.ar    1  UNL1        0.0231
     18 C         141.8962  143.8161  163.1241 C.ar    1  UNL1        0.1203
     19 N         142.4957  143.2657  161.8642 N.ar    1  UNL1       -0.2399
     20 C         142.0935  143.8295  160.5336 C.ar    1  UNL1        0.1092
     21 N         140.2874  146.0712  157.8019 N.1     1  UNL1       -0.1908
     22 C         140.6896  145.5074  159.1324 C.1     1  UNL1        0.1020
@<TRIPOS>BOND
     1    21    22    3
     2    22    15    1
     3    15    16   ar
     4    16    17   ar
     5    17    18   ar
     6    18     1    1
     7     1     2   ar
     8     2     3   ar
     9     3     4   ar
    10     4     6    1
    11     6     7   ar
    12     7     8   ar
    13     8     9    1
    14     8    10   ar
    15    10    11   ar
    16    11    13    1
    17    13    14    3
    18    11    12   ar
    19     4     5   ar
    20    18    19   ar
    21    19    20   ar
    22    20    15   ar
    23     5     1   ar
    24    12     6   ar
@<TRIPOS>MOLECULE
*****
 22 24 0 0 0
SMALL
GASTEIGER

@<TRIPOS>ATOM
      1 C         142.5359  143.4770  163.6939 C.ar    1  UNL1        0.2213
      2 N         143.9697  143.4577  164.1343 N.ar    1  UNL1       -0.0540
      3 O         144.0278  142.8330  165.4968 O.2     1  UNL1       -0.3324
      4 C         142.6299  142.4663  165.8985 C.ar    1  UNL1        0.2601
      5 N         141.7079  142.8643  164.7843 N.ar    1  UNL1       -0.1856
      6 C         142.2251  141.8157  167.1881 C.ar    1  UNL1        0.0590
      7 C         142.7353  140.4474  167.5304 C.ar    1  UNL1        0.0344
      8 C         142.3305  139.7969  168.8199 C.ar    1  UNL1        0.1410
      9 F         142.8407  138.4285  169.1622 F       1  UNL1       -0.2041
     10 C         141.4154  140.5148  169.7671 C.ar    1  UNL1        0.0399
     11 C         140.9051  141.8831  169.4248 C.ar    1  UNL1        0.0708
     12 C         141.3100  142.5336  168.1353 C.ar    1  UNL1        0.0152
     13 C         139.9899  142.6010  170.3721 C.1     1  UNL1        0.1005
     14 N         139.0749  143.3189  171.3193 N.1     1  UNL1       -0.1908
     15 C         140.9902  145.0900  159.7877 C.ar    1  UNL1        0.0876
     16 C         140.4560  145.6241  161.0836 C.ar    1  UNL1        0.0135
     17 C         140.9713  145.0864  162.3857 C.ar    1  UNL1        0.0231
     18 C         142.0207  144.0147  162.3918 C.ar    1  UNL1        0.1203
     19 N         142.5548  143.4806  161.0959 N.ar    1  UNL1       -0.2399
     20 C         142.0396  144.0183  159.7939 C.ar    1  UNL1        0.1092
     21 N         139.9597  146.1653  157.1835 N.1     1  UNL1       -0.1908
     22 C         140.4749  145.6277  158.4856 C.1     1  UNL1        0.1020
@<TRIPOS>BOND
     1    21    22    3
     2    22    15    1
     3    15    16   ar
     4    16    17   ar
     5    17    18   ar
     6    18     1    1
     7     1     2   ar
     8     2     3   ar
     9     3     4   ar
    10     4     6    1
    11     6     7   ar
    12     7     8   ar
    13     8     9    1
    14     8    10   ar
    15    10    11   ar
    16    11    13    1
    17    13    14    3
    18    11    12   ar
    19     4     5   ar
    20    18    19   ar
    21    19    20   ar
    22    20    15   ar
    23     5     1   ar
    24    12     6   ar
@<TRIPOS>MOLECULE
*****
 22 24 0 0 0
SMALL
GASTEIGER

@<TRIPOS>ATOM
      1 C         142.9196  138.7853  164.9685 C.ar    1  UNL1        0.2213
      2 N         143.6965  137.9869  165.9729 N.ar    1  UNL1       -0.0540
      3 O         143.3938  138.5357  167.3357 O.2     1  UNL1       -0.3324
      4 C         142.4297  139.6734  167.1735 C.ar    1  UNL1        0.2601
      5 N         142.1367  139.8276  165.7105 N.ar    1  UNL1       -0.1856
      6 C         141.8589  140.5099  168.2800 C.ar    1  UNL1        0.0590
      7 C         140.4333  140.3187  168.7059 C.ar    1  UNL1        0.0344
      8 C         139.8626  141.1553  169.8123 C.ar    1  UNL1        0.1410
      9 F         138.4371  140.9641  170.2382 F       1  UNL1       -0.2041
     10 C         140.7173  142.1830  170.4929 C.ar    1  UNL1        0.0399
     11 C         142.1427  142.3742  170.0671 C.ar    1  UNL1        0.0708
     12 C         142.7136  141.5376  168.9606 C.ar    1  UNL1        0.0152
     13 C         142.9975  143.4020  170.7477 C.1     1  UNL1        0.1005
     14 N         143.8522  144.4297  171.4283 N.1     1  UNL1       -0.1908
     15 C         142.9350  138.1629  160.5117 C.ar    1  UNL1        0.0876
     16 C         141.7462  137.7418  161.3237 C.ar    1  UNL1        0.0135
     17 C         141.7411  137.9492  162.8093 C.ar    1  UNL1        0.0231
     18 C         142.9247  138.5779  163.4829 C.ar    1  UNL1        0.1203
     19 N         144.1135  138.9990  162.6709 N.ar    1  UNL1       -0.2399
     20 C         144.1186  138.7916  161.1853 C.ar    1  UNL1        0.1092
     21 N         142.9452  137.7480  157.5406 N.1     1  UNL1       -0.1908
     22 C         142.9401  137.9555  159.0262 C.1     1  UNL1        0.1020
@<TRIPOS>BOND
     1    21    22    3
     2    22    15    1
     3    15    16   ar
     4    16    17   ar
     5    17    18   ar
     6    18     1    1
     7     1     2   ar
     8     2     3   ar
     9     3     4   ar
    10     4     6    1
    11     6     7   ar
    12     7     8   ar
    13     8     9    1
    14     8    10   ar
    15    10    11   ar
    16    11    13    1
    17    13    14    3
    18    11    12   ar
    19     4     5   ar
    20    18    19   ar
    21    19    20   ar
    22    20    15   ar
    23     5     1   ar
    24    12     6   ar
@<TRIPOS>MOLECULE
*****
 22 24 0 0 0
SMALL
GASTEIGER

@<TRIPOS>ATOM
      1 C         141.5445  143.5617  163.4177 C.ar    1  UNL1        0.2213
      2 N         142.8154  143.6638  164.2078 N.ar    1  UNL1       -0.0540
      3 O         142.6031  142.9679  165.5195 O.2     1  UNL1       -0.3324
      4 C         141.2009  142.4356  165.5401 C.ar    1  UNL1        0.2601
      5 N         140.5467  142.8026  164.2411 N.ar    1  UNL1       -0.1856
      6 C         140.5645  141.6707  166.6626 C.ar    1  UNL1        0.0590
      7 C         139.6905  140.4887  166.3639 C.ar    1  UNL1        0.0344
      8 C         139.0543  139.7238  167.4864 C.ar    1  UNL1        0.1410
      9 F         138.1803  138.5419  167.1877 F       1  UNL1       -0.2041
     10 C         139.2920  140.1408  168.9075 C.ar    1  UNL1        0.0399
     11 C         140.1659  141.3227  169.2061 C.ar    1  UNL1        0.0708
     12 C         140.8022  142.0876  168.0837 C.ar    1  UNL1        0.0152
     13 C         140.4037  141.7397  170.6274 C.1     1  UNL1        0.1005
     14 N         140.6415  142.1567  172.0485 N.1     1  UNL1       -0.1908
     15 C         140.8477  145.2381  159.3001 C.ar    1  UNL1        0.0876
     16 C         140.1419  145.8340  160.4819 C.ar    1  UNL1        0.0135
     17 C         140.3741  145.2752  161.8544 C.ar    1  UNL1        0.0231
     18 C         141.3122  144.1205  162.0452 C.ar    1  UNL1        0.1203
     19 N         142.0181  143.5245  160.8634 N.ar    1  UNL1       -0.2399
     20 C         141.7858  144.0833  159.4909 C.ar    1  UNL1        0.1092
     21 N         140.3831  146.3557  156.5551 N.1     1  UNL1       -0.1908
     22 C         140.6154  145.7969  157.9276 C.1     1  UNL1        0.1020
@<TRIPOS>BOND
     1    21    22    3
     2    22    15    1
     3    15    16   ar
     4    16    17   ar
     5    17    18   ar
     6    18     1    1
     7     1     2   ar
     8     2     3   ar
     9     3     4   ar
    10     4     6    1
    11     6     7   ar
    12     7     8   ar
    13     8     9    1
    14     8    10   ar
    15    10    11   ar
    16    11    13    1
    17    13    14    3
    18    11    12   ar
    19     4     5   ar
    20    18    19   ar
    21    19    20   ar
    22    20    15   ar
    23     5     1   ar
    24    12     6   ar
@<TRIPOS>MOLECULE
*****
 22 24 0 0 0
SMALL
GASTEIGER

@<TRIPOS>ATOM
      1 C         143.2682  138.5641  160.9922 C.ar    1  UNL1        0.2213
      2 N         144.1115  139.4168  160.0913 N.ar    1  UNL1       -0.0540
      3 O         143.8357  139.0083  158.6746 O.2     1  UNL1       -0.3324
      4 C         142.8218  137.9031  158.6999 C.ar    1  UNL1        0.2601
      5 N         142.4711  137.6286  160.1323 N.ar    1  UNL1       -0.1856
      6 C         142.2576  137.1966  157.5030 C.ar    1  UNL1        0.0590
      7 C         143.0808  136.1721  156.7798 C.ar    1  UNL1        0.0344
      8 C         142.5166  135.4656  155.5830 C.ar    1  UNL1        0.1410
      9 F         143.3397  134.4411  154.8599 F       1  UNL1       -0.2041
     10 C         141.1293  135.7835  155.1094 C.ar    1  UNL1        0.0399
     11 C         140.3062  136.8079  155.8325 C.ar    1  UNL1        0.0708
     12 C         140.8703  137.5144  157.0294 C.ar    1  UNL1        0.0152
     13 C         138.9188  137.1258  155.3588 C.1     1  UNL1        0.1005
     14 N         137.5315  137.4438  154.8852 N.1     1  UNL1       -0.1908
     15 C         143.1502  138.7753  165.4857 C.ar    1  UNL1        0.0876
     16 C         144.2291  139.4920  164.7292 C.ar    1  UNL1        0.0135
     17 C         144.2685  139.4215  163.2314 C.ar    1  UNL1        0.0231
     18 C         143.2289  138.6345  162.4900 C.ar    1  UNL1        0.1203
     19 N         142.1499  137.9178  163.2465 N.ar    1  UNL1       -0.2399
     20 C         142.1106  137.9882  164.7443 C.ar    1  UNL1        0.1092
     21 N         143.0715  138.9161  168.4813 N.1     1  UNL1       -0.1908
     22 C         143.1109  138.8457  166.9835 C.1     1  UNL1        0.1020
@<TRIPOS>BOND
     1    21    22    3
     2    22    15    1
     3    15    16   ar
     4    16    17   ar
     5    17    18   ar
     6    18     1    1
     7     1     2   ar
     8     2     3   ar
     9     3     4   ar
    10     4     6    1
    11     6     7   ar
    12     7     8   ar
    13     8     9    1
    14     8    10   ar
    15    10    11   ar
    16    11    13    1
    17    13    14    3
    18    11    12   ar
    19     4     5   ar
    20    18    19   ar
    21    19    20   ar
    22    20    15   ar
    23     5     1   ar
    24    12     6   ar
@<TRIPOS>MOLECULE
*****
 22 24 0 0 0
SMALL
GASTEIGER

@<TRIPOS>ATOM
      1 C         143.7459  142.1871  164.3950 C.ar    1  UNL1        0.2213
      2 N         144.4565  143.2507  165.1785 N.ar    1  UNL1       -0.0540
      3 O         144.0551  143.1128  166.6172 O.2     1  UNL1       -0.3324
      4 C         143.0964  141.9640  166.7229 C.ar    1  UNL1        0.2601
      5 N         142.9053  141.3919  165.3495 N.ar    1  UNL1       -0.1856
      6 C         142.4434  141.4734  167.9810 C.ar    1  UNL1        0.0590
      7 C         142.7493  140.0989  168.4981 C.ar    1  UNL1        0.0344
      8 C         142.0963  139.6084  169.7562 C.ar    1  UNL1        0.1410
      9 F         142.4023  138.2340  170.2732 F       1  UNL1       -0.2041
     10 C         141.1374  140.4923  170.4973 C.ar    1  UNL1        0.0399
     11 C         140.8315  141.8666  169.9803 C.ar    1  UNL1        0.0708
     12 C         141.4845  142.3572  168.7221 C.ar    1  UNL1        0.0152
     13 C         139.8725  142.7506  170.7214 C.1     1  UNL1        0.1005
     14 N         138.9137  143.6345  171.4625 N.1     1  UNL1       -0.1908
     15 C         144.0777  141.5023  159.9598 C.ar    1  UNL1        0.0876
     16 C         144.2185  142.8876  160.5174 C.ar    1  UNL1        0.0135
     17 C         144.1080  143.1159  161.9958 C.ar    1  UNL1        0.0231
     18 C         143.8565  141.9588  162.9166 C.ar    1  UNL1        0.1203
     19 N         143.7157  140.5735  162.3590 N.ar    1  UNL1       -0.2399
     20 C         143.8262  140.3452  160.8806 C.ar    1  UNL1        0.1092
     21 N         144.2989  141.0457  157.0030 N.1     1  UNL1       -0.1908
     22 C         144.1883  141.2740  158.4814 C.1     1  UNL1        0.1020
@<TRIPOS>BOND
     1    21    22    3
     2    22    15    1
     3    15    16   ar
     4    16    17   ar
     5    17    18   ar
     6    18     1    1
     7     1     2   ar
     8     2     3   ar
     9     3     4   ar
    10     4     6    1
    11     6     7   ar
    12     7     8   ar
    13     8     9    1
    14     8    10   ar
    15    10    11   ar
    16    11    13    1
    17    13    14    3
    18    11    12   ar
    19     4     5   ar
    20    18    19   ar
    21    19    20   ar
    22    20    15   ar
    23     5     1   ar
    24    12     6   ar
@<TRIPOS>MOLECULE
*****
 22 24 0 0 0
SMALL
GASTEIGER

@<TRIPOS>ATOM
      1 C         139.1088  143.0278  160.7828 C.ar    1  UNL1        0.2213
      2 N         138.2513  143.5753  161.8851 N.ar    1  UNL1       -0.0540
      3 O         138.1860  142.5475  162.9757 O.2     1  UNL1       -0.3324
      4 C         139.0032  141.3648  162.5474 C.ar    1  UNL1        0.2601
      5 N         139.5735  141.6617  161.1922 N.ar    1  UNL1       -0.1856
      6 C         139.2132  140.1062  163.3360 C.ar    1  UNL1        0.0590
      7 C         140.2510  139.1137  162.9022 C.ar    1  UNL1        0.0344
      8 C         140.4610  137.8552  163.6908 C.ar    1  UNL1        0.1410
      9 F         141.4987  136.8627  163.2570 F       1  UNL1       -0.2041
     10 C         139.6332  137.5890  164.9131 C.ar    1  UNL1        0.0399
     11 C         138.5955  138.5814  165.3468 C.ar    1  UNL1        0.0708
     12 C         138.3855  139.8400  164.5582 C.ar    1  UNL1        0.0152
     13 C         137.7677  138.3153  166.5691 C.1     1  UNL1        0.1005
     14 N         136.9399  138.0492  167.7914 N.1     1  UNL1       -0.1908
     15 C         140.1113  145.1171  156.9254 C.ar    1  UNL1        0.0876
     16 C         139.5577  143.7232  156.9015 C.ar    1  UNL1        0.0135
     17 C         139.2236  143.0268  158.1873 C.ar    1  UNL1        0.0231
     18 C         139.4430  143.7243  159.4970 C.ar    1  UNL1        0.1203
     19 N         139.9966  145.1181  159.5209 N.ar    1  UNL1       -0.2399
     20 C         140.3307  145.8146  158.2351 C.ar    1  UNL1        0.1092
     21 N         140.7796  146.5100  154.3538 N.1     1  UNL1       -0.1908
     22 C         140.4455  145.8135  155.6396 C.1     1  UNL1        0.1020
@<TRIPOS>BOND
     1    21    22    3
     2    22    15    1
     3    15    16   ar
     4    16    17   ar
     5    17    18   ar
     6    18     1    1
     7     1     2   ar
     8     2     3   ar
     9     3     4   ar
    10     4     6    1
    11     6     7   ar
    12     7     8   ar
    13     8     9    1
    14     8    10   ar
    15    10    11   ar
    16    11    13    1
    17    13    14    3
    18    11    12   ar
    19     4     5   ar
    20    18    19   ar
    21    19    20   ar
    22    20    15   ar
    23     5     1   ar
    24    12     6   ar
@<TRIPOS>MOLECULE
*****
 22 24 0 0 0
SMALL
GASTEIGER

@<TRIPOS>ATOM
      1 C         140.8104  138.5307  164.7774 C.ar    1  UNL1        0.2213
      2 N         141.0893  137.1015  164.4176 N.ar    1  UNL1       -0.0540
      3 O         141.0101  136.9752  162.9250 O.2     1  UNL1       -0.3324
      4 C         140.6822  138.3264  162.3623 C.ar    1  UNL1        0.2601
      5 N         140.5588  139.2877  163.5071 N.ar    1  UNL1       -0.1856
      6 C         140.5082  138.6581  160.9098 C.ar    1  UNL1        0.0590
      7 C         139.2325  139.2856  160.4313 C.ar    1  UNL1        0.0344
      8 C         139.0586  139.6173  158.9789 C.ar    1  UNL1        0.1410
      9 F         137.7830  140.2449  158.5004 F       1  UNL1       -0.2041
     10 C         140.1603  139.3214  158.0049 C.ar    1  UNL1        0.0399
     11 C         141.4359  138.6939  158.4833 C.ar    1  UNL1        0.0708
     12 C         141.6099  138.3622  159.9358 C.ar    1  UNL1        0.0152
     13 C         142.5377  138.3979  157.5092 C.1     1  UNL1        0.1005
     14 N         143.6394  138.1020  156.5353 N.1     1  UNL1       -0.1908
     15 C         140.7408  140.2461  168.9370 C.ar    1  UNL1        0.0876
     16 C         139.4584  140.0565  168.1823 C.ar    1  UNL1        0.0135
     17 C         139.4816  139.4847  166.7958 C.ar    1  UNL1        0.0231
     18 C         140.7872  139.1025  166.1639 C.ar    1  UNL1        0.1203
     19 N         142.0696  139.2921  166.9186 N.ar    1  UNL1       -0.2399
     20 C         142.0464  139.8638  168.3051 C.ar    1  UNL1        0.1092
     21 N         140.6944  141.3896  171.7101 N.1     1  UNL1       -0.1908
     22 C         140.7176  140.8179  170.3236 C.1     1  UNL1        0.1020
@<TRIPOS>BOND
     1    21    22    3
     2    22    15    1
     3    15    16   ar
     4    16    17   ar
     5    17    18   ar
     6    18     1    1
     7     1     2   ar
     8     2     3   ar
     9     3     4   ar
    10     4     6    1
    11     6     7   ar
    12     7     8   ar
    13     8     9    1
    14     8    10   ar
    15    10    11   ar
    16    11    13    1
    17    13    14    3
    18    11    12   ar
    19     4     5   ar
    20    18    19   ar
    21    19    20   ar
    22    20    15   ar
    23     5     1   ar
    24    12     6   ar
