@<TRIPOS>MOLECULE
*****
 35 39 0 0 0
SMALL
GASTEIGER

@<TRIPOS>ATOM
      1 N         141.7313  139.3880  162.1068 N.pl3   1  UNL1       -0.2747
      2 C         141.2740  138.1613  161.3747 C.3     1  UNL1        0.1151
      3 C         141.7422  137.9065  159.9725 C.3     1  UNL1        0.1150
      4 N         142.6677  138.8785  159.3026 N.am    1  UNL1       -0.2730
      5 C         143.1358  138.6237  157.9005 C.2     1  UNL1        0.2699
      6 O         144.0613  139.5957  157.2306 O.2     1  UNL1       -0.2708
      7 C         143.1249  140.1052  160.0348 C.3     1  UNL1        0.1150
      8 C         142.6568  140.3599  161.4369 C.3     1  UNL1        0.1151
      9 C         142.3261  140.6134  168.5017 C.ar    1  UNL1        0.1739
     10 C         142.7942  140.3587  167.0996 C.ar    1  UNL1        0.0593
     11 C         141.7946  140.1281  166.0054 C.ar    1  UNL1        0.0901
     12 N         142.2628  139.8733  164.6032 N.ar    1  UNL1       -0.2134
     13 C         141.2631  139.6427  163.5089 C.ar    1  UNL1        0.2214
     14 N         139.7952  139.6669  163.8168 N.ar    1  UNL1       -0.1991
     15 C         139.3270  139.9216  165.2189 C.ar    1  UNL1        0.1298
     16 N         137.8592  139.9458  165.5267 N.pl3   1  UNL1       -0.3425
     17 C         140.3267  140.1522  166.3132 C.ar    1  UNL1        0.0522
     18 C         139.8586  140.4070  167.7152 C.ar    1  UNL1        0.0443
     19 C         140.8582  140.6376  168.8095 C.ar    1  UNL1        0.1726
     20 H         137.2031  139.7944  164.8084 H       1  UNL1        0.1437
     21 H         137.5519  140.1130  166.4469 H       1  UNL1        0.1437
     22 C         143.8276  142.2301  169.8736 C.3     1  UNL1        0.2526
     23 O         143.3258  140.8440  169.5960 O.3     1  UNL1       -0.4683
     24 O         140.3900  140.8923  170.2117 O.3     1  UNL1       -0.4684
     25 C         140.1616  142.2982  170.6823 C.3     1  UNL1        0.2526
     26 C         142.6785  137.3970  157.1683 C.3     1  UNL1        0.2845
     27 C         141.6762  137.5159  156.0588 C.3     1  UNL1        0.2583
     28 O         141.2189  136.2892  155.3266 O.3     1  UNL1       -0.4679
     29 C         141.7639  134.9437  155.7040 C.ar    1  UNL1        0.1724
     30 C         141.3066  133.7170  154.9718 C.ar    1  UNL1        0.0400
     31 C         141.8518  132.3714  155.3492 C.ar    1  UNL1        0.0033
     32 C         142.8542  132.2526  156.4587 C.ar    1  UNL1        0.0033
     33 C         143.3114  133.4793  157.1909 C.ar    1  UNL1        0.0401
     34 C         142.7664  134.8248  156.8135 C.ar    1  UNL1        0.1729
     35 O         143.2237  136.0515  157.5457 O.3     1  UNL1       -0.4630
@<TRIPOS>BOND
     1    22    23    1
     2    23     9    1
     3     9    10   ar
     4    10    11   ar
     5    11    12   ar
     6    12    13   ar
     7    13     1    1
     8     1     2    1
     9     2     3    1
    10     3     4    1
    11     4     5   am
    12     5     6    2
    13     5    26    1
    14    26    27    1
    15    27    28    1
    16    28    29    1
    17    29    30   ar
    18    30    31   ar
    19    31    32   ar
    20    32    33   ar
    21    33    34   ar
    22    34    35    1
    23     4     7    1
    24     7     8    1
    25    13    14   ar
    26    14    15   ar
    27    15    16    1
    28    15    17   ar
    29    17    18   ar
    30    18    19   ar
    31    19    24    1
    32    24    25    1
    33    19     9   ar
    34    17    11   ar
    35     8     1    1
    36    35    26    1
    37    34    29   ar
    38    16    20    1
    39    16    21    1
@<TRIPOS>MOLECULE
*****
 35 39 0 0 0
SMALL
GASTEIGER

@<TRIPOS>ATOM
      1 N         142.1798  139.7333  161.7442 N.pl3   1  UNL1       -0.2747
      2 C         141.7697  138.4113  161.1663 C.3     1  UNL1        0.1151
      3 C         142.0830  138.0887  159.7352 C.3     1  UNL1        0.1150
      4 N         142.8065  139.0880  158.8822 N.am    1  UNL1       -0.2730
      5 C         143.1199  138.7654  157.4512 C.2     1  UNL1        0.2699
      6 O         143.8434  139.7648  156.5981 O.2     1  UNL1       -0.2708
      7 C         143.2167  140.4101  159.4601 C.3     1  UNL1        0.1150
      8 C         142.9033  140.7328  160.8910 C.3     1  UNL1        0.1151
      9 C         138.8958  139.4054  167.3884 C.ar    1  UNL1        0.1739
     10 C         139.2092  139.0827  165.9575 C.ar    1  UNL1        0.0593
     11 C         140.3812  139.7307  165.2818 C.ar    1  UNL1        0.0901
     12 N         140.6945  139.4080  163.8508 N.ar    1  UNL1       -0.2134
     13 C         141.8665  140.0560  163.1751 C.ar    1  UNL1        0.2214
     14 N         142.7251  141.0267  163.9305 N.ar    1  UNL1       -0.1991
     15 C         142.4118  141.3494  165.3614 C.ar    1  UNL1        0.1298
     16 N         143.2704  142.3201  166.1167 N.pl3   1  UNL1       -0.3425
     17 C         141.2398  140.7014  166.0371 C.ar    1  UNL1        0.0522
     18 C         140.9265  141.0241  167.4680 C.ar    1  UNL1        0.0443
     19 C         139.7545  140.3761  168.1437 C.ar    1  UNL1        0.1726
     20 H         144.0397  142.7454  165.6732 H       1  UNL1        0.1437
     21 H         143.0648  142.5319  167.0559 H       1  UNL1        0.1437
     22 C         136.9752  137.6559  167.3741 C.3     1  UNL1        0.2526
     23 O         137.7239  138.7574  168.0641 O.3     1  UNL1       -0.4683
     24 O         139.4412  140.6988  169.5747 O.3     1  UNL1       -0.4684
     25 C         139.7930  142.0453  170.1343 C.3     1  UNL1        0.2526
     26 C         142.7097  137.4433  156.8733 C.3     1  UNL1        0.2845
     27 C         141.6672  137.3866  155.7964 C.3     1  UNL1        0.2583
     28 O         141.2571  136.0645  155.2185 O.3     1  UNL1       -0.4679
     29 C         141.8894  134.7992  155.7176 C.ar    1  UNL1        0.1724
     30 C         141.4793  133.4772  155.1397 C.ar    1  UNL1        0.0400
     31 C         142.1117  132.2118  155.6388 C.ar    1  UNL1        0.0033
     32 C         143.1543  132.2686  156.7157 C.ar    1  UNL1        0.0033
     33 C         143.5644  133.5907  157.2936 C.ar    1  UNL1        0.0401
     34 C         142.9320  134.8559  156.7946 C.ar    1  UNL1        0.1729
     35 O         143.3422  136.1780  157.3725 O.3     1  UNL1       -0.4630
@<TRIPOS>BOND
     1    22    23    1
     2    23     9    1
     3     9    10   ar
     4    10    11   ar
     5    11    12   ar
     6    12    13   ar
     7    13     1    1
     8     1     2    1
     9     2     3    1
    10     3     4    1
    11     4     5   am
    12     5     6    2
    13     5    26    1
    14    26    27    1
    15    27    28    1
    16    28    29    1
    17    29    30   ar
    18    30    31   ar
    19    31    32   ar
    20    32    33   ar
    21    33    34   ar
    22    34    35    1
    23     4     7    1
    24     7     8    1
    25    13    14   ar
    26    14    15   ar
    27    15    16    1
    28    15    17   ar
    29    17    18   ar
    30    18    19   ar
    31    19    24    1
    32    24    25    1
    33    19     9   ar
    34    17    11   ar
    35     8     1    1
    36    35    26    1
    37    34    29   ar
    38    16    20    1
    39    16    21    1
@<TRIPOS>MOLECULE
*****
 35 39 0 0 0
SMALL
GASTEIGER

@<TRIPOS>ATOM
      1 N         143.0904  139.2492  160.5049 N.pl3   1  UNL1       -0.2747
      2 C         143.0277  137.7532  160.4141 C.3     1  UNL1        0.1151
      3 C         142.8983  137.0878  159.0759 C.3     1  UNL1        0.1150
      4 N         142.8317  137.9183  157.8286 N.am    1  UNL1       -0.2730
      5 C         142.7024  137.2529  156.4906 C.2     1  UNL1        0.2699
      6 O         142.6357  138.0835  155.2432 O.2     1  UNL1       -0.2708
      7 C         142.8944  139.4143  157.9194 C.3     1  UNL1        0.1150
      8 C         143.0237  140.0797  159.2575 C.3     1  UNL1        0.1151
      9 C         141.1648  141.2362  166.4289 C.ar    1  UNL1        0.1739
     10 C         141.0355  140.5707  165.0908 C.ar    1  UNL1        0.0593
     11 C         142.1923  140.5754  164.1359 C.ar    1  UNL1        0.0901
     12 N         142.0629  139.9099  162.7978 N.ar    1  UNL1       -0.2134
     13 C         143.2197  139.9146  161.8429 C.ar    1  UNL1        0.2214
     14 N         144.5059  140.5847  162.2261 N.ar    1  UNL1       -0.1991
     15 C         144.6352  141.2502  163.5642 C.ar    1  UNL1        0.1298
     16 N         145.9213  141.9202  163.9473 N.pl3   1  UNL1       -0.3425
     17 C         143.4784  141.2455  164.5191 C.ar    1  UNL1        0.0522
     18 C         143.6077  141.9109  165.8571 C.ar    1  UNL1        0.0443
     19 C         142.4509  141.9062  166.8120 C.ar    1  UNL1        0.1726
     20 H         146.6805  141.9233  163.3206 H       1  UNL1        0.1437
     21 H         146.0062  142.3570  164.8256 H       1  UNL1        0.1437
     22 C         139.4669  139.9313  167.9000 C.3     1  UNL1        0.2526
     23 O         140.0080  141.2315  167.3838 O.3     1  UNL1       -0.4683
     24 O         142.5803  142.5717  168.1502 O.3     1  UNL1       -0.4684
     25 C         143.1422  141.8114  169.3147 C.3     1  UNL1        0.2526
     26 C         142.6397  135.7570  156.3998 C.3     1  UNL1        0.2845
     27 C         141.5371  135.0982  155.6251 C.3     1  UNL1        0.2583
     28 O         141.4745  133.6022  155.5343 O.3     1  UNL1       -0.4679
     29 C         142.5143  132.7651  156.2183 C.ar    1  UNL1        0.1724
     30 C         142.4516  131.2692  156.1275 C.ar    1  UNL1        0.0400
     31 C         143.4916  130.4320  156.8115 C.ar    1  UNL1        0.0033
     32 C         144.5941  131.0909  157.5863 C.ar    1  UNL1        0.0033
     33 C         144.6568  132.5868  157.6771 C.ar    1  UNL1        0.0401
     34 C         143.6169  133.4239  156.9931 C.ar    1  UNL1        0.1729
     35 O         143.6796  134.9199  157.0838 O.3     1  UNL1       -0.4630
@<TRIPOS>BOND
     1    22    23    1
     2    23     9    1
     3     9    10   ar
     4    10    11   ar
     5    11    12   ar
     6    12    13   ar
     7    13     1    1
     8     1     2    1
     9     2     3    1
    10     3     4    1
    11     4     5   am
    12     5     6    2
    13     5    26    1
    14    26    27    1
    15    27    28    1
    16    28    29    1
    17    29    30   ar
    18    30    31   ar
    19    31    32   ar
    20    32    33   ar
    21    33    34   ar
    22    34    35    1
    23     4     7    1
    24     7     8    1
    25    13    14   ar
    26    14    15   ar
    27    15    16    1
    28    15    17   ar
    29    17    18   ar
    30    18    19   ar
    31    19    24    1
    32    24    25    1
    33    19     9   ar
    34    17    11   ar
    35     8     1    1
    36    35    26    1
    37    34    29   ar
    38    16    20    1
    39    16    21    1
@<TRIPOS>MOLECULE
*****
 35 39 0 0 0
SMALL
GASTEIGER

@<TRIPOS>ATOM
      1 N         142.3116  138.5281  157.6750 N.pl3   1  UNL1       -0.2747
      2 C         141.2038  138.8952  158.6173 C.3     1  UNL1        0.1151
      3 C         141.1578  140.2669  159.2227 C.3     1  UNL1        0.1150
      4 N         142.2195  141.2714  158.8857 N.am    1  UNL1       -0.2730
      5 C         142.1735  142.6430  159.4910 C.2     1  UNL1        0.2699
      6 O         143.2353  143.6476  159.1540 O.2     1  UNL1       -0.2708
      7 C         143.3273  140.9043  157.9433 C.3     1  UNL1        0.1150
      8 C         143.3734  139.5326  157.3380 C.3     1  UNL1        0.1151
      9 C         144.1480  132.2786  157.1077 C.ar    1  UNL1        0.1739
     10 C         144.1020  133.6502  157.7131 C.ar    1  UNL1        0.0593
     11 C         143.2528  134.7175  157.0887 C.ar    1  UNL1        0.0901
     12 N         143.2068  136.0892  157.6941 N.ar    1  UNL1       -0.2134
     13 C         142.3576  137.1564  157.0696 C.ar    1  UNL1        0.2214
     14 N         141.5545  136.8520  155.8398 N.ar    1  UNL1       -0.1991
     15 C         141.6005  135.4804  155.2345 C.ar    1  UNL1        0.1298
     16 N         140.7974  135.1760  154.0048 N.pl3   1  UNL1       -0.3425
     17 C         142.4497  134.4131  155.8589 C.ar    1  UNL1        0.0522
     18 C         142.4957  133.0415  155.2536 C.ar    1  UNL1        0.0443
     19 C         143.3449  131.9742  155.8780 C.ar    1  UNL1        0.1726
     20 H         140.2401  135.8765  153.5949 H       1  UNL1        0.1437
     21 H         140.8276  134.2758  153.6074 H       1  UNL1        0.1437
     22 C         144.3536  129.9981  158.3352 C.3     1  UNL1        0.2526
     23 O         144.9972  131.2113  157.7321 O.3     1  UNL1       -0.4683
     24 O         143.3909  130.6025  155.2726 O.3     1  UNL1       -0.4684
     25 C         144.5019  130.2336  154.3347 C.3     1  UNL1        0.2526
     26 C         141.0657  143.0101  160.4334 C.3     1  UNL1        0.2845
     27 C         139.6876  143.2751  159.9039 C.3     1  UNL1        0.2583
     28 O         138.5798  143.6423  160.8462 O.3     1  UNL1       -0.4679
     29 C         138.8502  143.7444  162.3181 C.ar    1  UNL1        0.1724
     30 C         137.7424  144.1115  163.2604 C.ar    1  UNL1        0.0400
     31 C         138.0128  144.2136  164.7324 C.ar    1  UNL1        0.0033
     32 C         139.3910  143.9486  165.2619 C.ar    1  UNL1        0.0033
     33 C         140.4987  143.5815  164.3195 C.ar    1  UNL1        0.0401
     34 C         140.2284  143.4794  162.8477 C.ar    1  UNL1        0.1729
     35 O         141.3362  143.1122  161.9053 O.3     1  UNL1       -0.4630
@<TRIPOS>BOND
     1    22    23    1
     2    23     9    1
     3     9    10   ar
     4    10    11   ar
     5    11    12   ar
     6    12    13   ar
     7    13     1    1
     8     1     2    1
     9     2     3    1
    10     3     4    1
    11     4     5   am
    12     5     6    2
    13     5    26    1
    14    26    27    1
    15    27    28    1
    16    28    29    1
    17    29    30   ar
    18    30    31   ar
    19    31    32   ar
    20    32    33   ar
    21    33    34   ar
    22    34    35    1
    23     4     7    1
    24     7     8    1
    25    13    14   ar
    26    14    15   ar
    27    15    16    1
    28    15    17   ar
    29    17    18   ar
    30    18    19   ar
    31    19    24    1
    32    24    25    1
    33    19     9   ar
    34    17    11   ar
    35     8     1    1
    36    35    26    1
    37    34    29   ar
    38    16    20    1
    39    16    21    1
@<TRIPOS>MOLECULE
*****
 35 39 0 0 0
SMALL
GASTEIGER

@<TRIPOS>ATOM
      1 N         140.8488  144.0893  160.1532 N.pl3   1  UNL1       -0.2747
      2 C         141.0715  145.4391  159.5380 C.3     1  UNL1        0.1151
      3 C         140.5424  145.7343  158.1658 C.3     1  UNL1        0.1150
      4 N         139.7908  144.6799  157.4088 N.am    1  UNL1       -0.2730
      5 C         139.2618  144.9752  156.0366 C.2     1  UNL1        0.2699
      6 O         138.5101  143.9206  155.2796 O.2     1  UNL1       -0.2708
      7 C         139.5681  143.3301  158.0240 C.3     1  UNL1        0.1150
      8 C         140.0971  143.0347  159.3962 C.3     1  UNL1        0.1151
      9 C         141.3491  140.8821  165.8289 C.ar    1  UNL1        0.1739
     10 C         140.8201  141.1774  164.4568 C.ar    1  UNL1        0.0593
     11 C         141.3635  142.3380  163.6772 C.ar    1  UNL1        0.0901
     12 N         140.8345  142.6333  162.3050 N.ar    1  UNL1       -0.2134
     13 C         141.3778  143.7939  161.5254 C.ar    1  UNL1        0.2214
     14 N         142.4503  144.6593  162.1181 N.ar    1  UNL1       -0.1991
     15 C         142.9792  144.3640  163.4903 C.ar    1  UNL1        0.1298
     16 N         144.0516  145.2293  164.0829 N.pl3   1  UNL1       -0.3425
     17 C         142.4359  143.2033  164.2698 C.ar    1  UNL1        0.0522
     18 C         142.9649  142.9080  165.6420 C.ar    1  UNL1        0.0443
     19 C         142.4215  141.7474  166.4216 C.ar    1  UNL1        0.1726
     20 H         144.4082  145.9910  163.5712 H       1  UNL1        0.1437
     21 H         144.3988  145.0355  164.9835 H       1  UNL1        0.1437
     22 C         139.6111  139.9077  167.4962 C.3     1  UNL1        0.2526
     23 O         140.8058  139.7215  166.6085 O.3     1  UNL1       -0.4683
     24 O         142.9506  141.4521  167.7938 O.3     1  UNL1       -0.4684
     25 C         142.5434  142.3097  168.9552 C.3     1  UNL1        0.2526
     26 C         139.4844  146.3250  155.4214 C.3     1  UNL1        0.2845
     27 C         140.3878  146.4675  154.2325 C.3     1  UNL1        0.2583
     28 O         140.6105  147.8173  153.6173 O.3     1  UNL1       -0.4679
     29 C         139.9297  149.0246  154.1910 C.ar    1  UNL1        0.1724
     30 C         140.1524  150.3744  153.5758 C.ar    1  UNL1        0.0400
     31 C         139.4716  151.5816  154.1496 C.ar    1  UNL1        0.0033
     32 C         138.5682  151.4390  155.3385 C.ar    1  UNL1        0.0033
     33 C         138.3456  150.0892  155.9537 C.ar    1  UNL1        0.0401
     34 C         139.0263  148.8820  155.3800 C.ar    1  UNL1        0.1729
     35 O         138.8036  147.5322  155.9952 O.3     1  UNL1       -0.4630
@<TRIPOS>BOND
     1    22    23    1
     2    23     9    1
     3     9    10   ar
     4    10    11   ar
     5    11    12   ar
     6    12    13   ar
     7    13     1    1
     8     1     2    1
     9     2     3    1
    10     3     4    1
    11     4     5   am
    12     5     6    2
    13     5    26    1
    14    26    27    1
    15    27    28    1
    16    28    29    1
    17    29    30   ar
    18    30    31   ar
    19    31    32   ar
    20    32    33   ar
    21    33    34   ar
    22    34    35    1
    23     4     7    1
    24     7     8    1
    25    13    14   ar
    26    14    15   ar
    27    15    16    1
    28    15    17   ar
    29    17    18   ar
    30    18    19   ar
    31    19    24    1
    32    24    25    1
    33    19     9   ar
    34    17    11   ar
    35     8     1    1
    36    35    26    1
    37    34    29   ar
    38    16    20    1
    39    16    21    1
@<TRIPOS>MOLECULE
*****
 35 39 0 0 0
SMALL
GASTEIGER

@<TRIPOS>ATOM
      1 N         141.4370  139.9276  156.7846 N.pl3   1  UNL1       -0.2747
      2 C         141.4221  140.1398  158.2694 C.3     1  UNL1        0.1151
      3 C         141.0356  141.4754  158.8323 C.3     1  UNL1        0.1150
      4 N         140.6639  142.5987  157.9104 N.am    1  UNL1       -0.2730
      5 C         140.2774  143.9342  158.4733 C.2     1  UNL1        0.2699
      6 O         139.9057  145.0577  157.5514 O.2     1  UNL1       -0.2708
      7 C         140.6788  142.3865  156.4256 C.3     1  UNL1        0.1150
      8 C         141.0653  141.0510  155.8626 C.3     1  UNL1        0.1151
      9 C         143.4944  133.7231  156.9296 C.ar    1  UNL1        0.1739
     10 C         143.1079  135.0586  157.4926 C.ar    1  UNL1        0.0593
     11 C         142.6590  136.1576  156.5756 C.ar    1  UNL1        0.0901
     12 N         142.2724  137.4931  157.1386 N.ar    1  UNL1       -0.2134
     13 C         141.8235  138.5921  156.2216 C.ar    1  UNL1        0.2214
     14 N         141.7612  138.3554  154.7417 N.ar    1  UNL1       -0.1991
     15 C         142.1477  137.0199  154.1788 C.ar    1  UNL1        0.1298
     16 N         142.0854  136.7834  152.6989 N.pl3   1  UNL1       -0.3425
     17 C         142.5966  135.9210  155.0957 C.ar    1  UNL1        0.0522
     18 C         142.9832  134.5855  154.5328 C.ar    1  UNL1        0.0443
     19 C         143.4321  133.4865  155.4498 C.ar    1  UNL1        0.1726
     20 H         141.7908  137.5046  152.0971 H       1  UNL1        0.1437
     21 H         142.3391  135.9068  152.3294 H       1  UNL1        0.1437
     22 C         145.4060  132.3367  158.0129 C.3     1  UNL1        0.2526
     23 O         143.9433  132.6241  157.8466 O.3     1  UNL1       -0.4683
     24 O         143.8186  132.1509  154.8868 O.3     1  UNL1       -0.4684
     25 C         143.1228  131.6209  153.6682 C.3     1  UNL1        0.2526
     26 C         140.2625  144.1465  159.9582 C.3     1  UNL1        0.2845
     27 C         141.4919  144.6470  160.6566 C.3     1  UNL1        0.2583
     28 O         141.4771  144.8592  162.1414 O.3     1  UNL1       -0.4679
     29 C         140.2328  144.5709  162.9278 C.ar    1  UNL1        0.1724
     30 C         140.2179  144.7831  164.4127 C.ar    1  UNL1        0.0400
     31 C         138.9735  144.4947  165.1991 C.ar    1  UNL1        0.0033
     32 C         137.7440  143.9942  164.5006 C.ar    1  UNL1        0.0033
     33 C         137.7589  143.7820  163.0158 C.ar    1  UNL1        0.0401
     34 C         139.0032  144.0703  162.2294 C.ar    1  UNL1        0.1729
     35 O         139.0181  143.8581  160.7446 O.3     1  UNL1       -0.4630
@<TRIPOS>BOND
     1    22    23    1
     2    23     9    1
     3     9    10   ar
     4    10    11   ar
     5    11    12   ar
     6    12    13   ar
     7    13     1    1
     8     1     2    1
     9     2     3    1
    10     3     4    1
    11     4     5   am
    12     5     6    2
    13     5    26    1
    14    26    27    1
    15    27    28    1
    16    28    29    1
    17    29    30   ar
    18    30    31   ar
    19    31    32   ar
    20    32    33   ar
    21    33    34   ar
    22    34    35    1
    23     4     7    1
    24     7     8    1
    25    13    14   ar
    26    14    15   ar
    27    15    16    1
    28    15    17   ar
    29    17    18   ar
    30    18    19   ar
    31    19    24    1
    32    24    25    1
    33    19     9   ar
    34    17    11   ar
    35     8     1    1
    36    35    26    1
    37    34    29   ar
    38    16    20    1
    39    16    21    1
@<TRIPOS>MOLECULE
*****
 35 39 0 0 0
SMALL
GASTEIGER

@<TRIPOS>ATOM
      1 N         142.1435  139.3594  158.6693 N.pl3   1  UNL1       -0.2747
      2 C         142.2499  139.1745  160.1540 C.3     1  UNL1        0.1151
      3 C         142.4422  140.3650  161.0462 C.3     1  UNL1        0.1150
      4 N         142.5280  141.7403  160.4536 N.am    1  UNL1       -0.2730
      5 C         142.7202  142.9306  161.3458 C.2     1  UNL1        0.2699
      6 O         142.8060  144.3060  160.7532 O.2     1  UNL1       -0.2708
      7 C         142.4215  141.9252  158.9689 C.3     1  UNL1        0.1150
      8 C         142.2293  140.7348  158.0767 C.3     1  UNL1        0.1151
      9 C         143.6073  133.5894  155.9648 C.ar    1  UNL1        0.1739
     10 C         143.7995  134.7798  156.8570 C.ar    1  UNL1        0.0593
     11 C         142.7792  135.8792  156.8709 C.ar    1  UNL1        0.0901
     12 N         142.9715  137.0696  157.7632 N.ar    1  UNL1       -0.2134
     13 C         141.9512  138.1691  157.7771 C.ar    1  UNL1        0.2214
     14 N         140.7386  138.0781  156.8988 N.ar    1  UNL1       -0.1991
     15 C         140.5463  136.8877  156.0067 C.ar    1  UNL1        0.1298
     16 N         139.3337  136.7968  155.1285 N.pl3   1  UNL1       -0.3425
     17 C         141.5666  135.7883  155.9927 C.ar    1  UNL1        0.0522
     18 C         141.3744  134.5979  155.1006 C.ar    1  UNL1        0.0443
     19 C         142.3947  133.4985  155.0866 C.ar    1  UNL1        0.1726
     20 H         138.6640  137.5184  155.1376 H       1  UNL1        0.1437
     21 H         139.2075  136.0155  154.5429 H       1  UNL1        0.1437
     22 C         144.5753  131.4051  156.9854 C.3     1  UNL1        0.2526
     23 O         144.6276  132.4900  155.9509 O.3     1  UNL1       -0.4683
     24 O         142.2024  132.3081  154.1944 O.3     1  UNL1       -0.4684
     25 C         141.3989  131.1349  154.6719 C.3     1  UNL1        0.2526
     26 C         142.8267  142.7457  162.8306 C.3     1  UNL1        0.2845
     27 C         144.1583  142.4546  163.4565 C.3     1  UNL1        0.2583
     28 O         144.2648  142.2697  164.9413 O.3     1  UNL1       -0.4679
     29 C         143.0396  142.3759  165.8000 C.ar    1  UNL1        0.1724
     30 C         143.1460  142.1910  167.2848 C.ar    1  UNL1        0.0400
     31 C         141.9207  142.2972  168.1436 C.ar    1  UNL1        0.0033
     32 C         140.5891  142.5883  167.5176 C.ar    1  UNL1        0.0033
     33 C         140.4826  142.7732  166.0329 C.ar    1  UNL1        0.0401
     34 C         141.7078  142.6670  165.1741 C.ar    1  UNL1        0.1729
     35 O         141.6014  142.8519  163.6893 O.3     1  UNL1       -0.4630
@<TRIPOS>BOND
     1    22    23    1
     2    23     9    1
     3     9    10   ar
     4    10    11   ar
     5    11    12   ar
     6    12    13   ar
     7    13     1    1
     8     1     2    1
     9     2     3    1
    10     3     4    1
    11     4     5   am
    12     5     6    2
    13     5    26    1
    14    26    27    1
    15    27    28    1
    16    28    29    1
    17    29    30   ar
    18    30    31   ar
    19    31    32   ar
    20    32    33   ar
    21    33    34   ar
    22    34    35    1
    23     4     7    1
    24     7     8    1
    25    13    14   ar
    26    14    15   ar
    27    15    16    1
    28    15    17   ar
    29    17    18   ar
    30    18    19   ar
    31    19    24    1
    32    24    25    1
    33    19     9   ar
    34    17    11   ar
    35     8     1    1
    36    35    26    1
    37    34    29   ar
    38    16    20    1
    39    16    21    1
@<TRIPOS>MOLECULE
*****
 35 39 0 0 0
SMALL
GASTEIGER

@<TRIPOS>ATOM
      1 N         142.8440  142.3742  159.2191 N.pl3   1  UNL1       -0.2747
      2 C         142.7889  141.6216  160.5154 C.3     1  UNL1        0.1151
      3 C         141.5363  141.6400  161.3407 C.3     1  UNL1        0.1150
      4 N         140.3390  142.4109  160.8695 N.am    1  UNL1       -0.2730
      5 C         139.0866  142.4293  161.6947 C.2     1  UNL1        0.2699
      6 O         137.8892  143.2003  161.2236 O.2     1  UNL1       -0.2708
      7 C         140.3941  143.1635  159.5731 C.3     1  UNL1        0.1150
      8 C         141.6466  143.1451  158.7479 C.3     1  UNL1        0.1151
      9 C         146.5469  141.2035  153.9590 C.ar    1  UNL1        0.1739
     10 C         145.2944  141.2219  154.7842 C.ar    1  UNL1        0.0593
     11 C         145.3217  141.7797  156.1764 C.ar    1  UNL1        0.0901
     12 N         144.0692  141.7980  157.0017 N.ar    1  UNL1       -0.2134
     13 C         144.0964  142.3558  158.3938 C.ar    1  UNL1        0.2214
     14 N         145.3761  142.8952  158.9608 N.ar    1  UNL1       -0.1991
     15 C         146.6286  142.8768  158.1355 C.ar    1  UNL1        0.1298
     16 N         147.9082  143.4162  158.7025 N.pl3   1  UNL1       -0.3425
     17 C         146.6013  142.3191  156.7434 C.ar    1  UNL1        0.0522
     18 C         147.8538  142.3007  155.9181 C.ar    1  UNL1        0.0443
     19 C         147.8265  141.7429  154.5260 C.ar    1  UNL1        0.1726
     20 H         147.9261  143.7823  159.6162 H       1  UNL1        0.1437
     21 H         148.7303  143.4042  158.1609 H       1  UNL1        0.1437
     22 C         145.2942  139.9412  152.0650 C.3     1  UNL1        0.2526
     23 O         146.5196  140.6458  152.5668 O.3     1  UNL1       -0.4683
     24 O         149.0790  141.7246  153.7007 O.3     1  UNL1       -0.4684
     25 C         150.4137  141.5655  154.3667 C.3     1  UNL1        0.2526
     26 C         139.0315  141.6767  162.9911 C.3     1  UNL1        0.2845
     27 C         138.3283  140.3537  163.0610 C.3     1  UNL1        0.2583
     28 O         138.2732  139.6011  164.3574 O.3     1  UNL1       -0.4679
     29 C         138.9213  140.1716  165.5839 C.ar    1  UNL1        0.1724
     30 C         138.8662  139.4191  166.8803 C.ar    1  UNL1        0.0400
     31 C         139.5143  139.9896  168.1069 C.ar    1  UNL1        0.0033
     32 C         140.2175  141.3127  168.0370 C.ar    1  UNL1        0.0033
     33 C         140.2727  142.0653  166.7406 C.ar    1  UNL1        0.0401
     34 C         139.6245  141.4948  165.5141 C.ar    1  UNL1        0.1729
     35 O         139.6797  142.2473  164.2177 O.3     1  UNL1       -0.4630
@<TRIPOS>BOND
     1    22    23    1
     2    23     9    1
     3     9    10   ar
     4    10    11   ar
     5    11    12   ar
     6    12    13   ar
     7    13     1    1
     8     1     2    1
     9     2     3    1
    10     3     4    1
    11     4     5   am
    12     5     6    2
    13     5    26    1
    14    26    27    1
    15    27    28    1
    16    28    29    1
    17    29    30   ar
    18    30    31   ar
    19    31    32   ar
    20    32    33   ar
    21    33    34   ar
    22    34    35    1
    23     4     7    1
    24     7     8    1
    25    13    14   ar
    26    14    15   ar
    27    15    16    1
    28    15    17   ar
    29    17    18   ar
    30    18    19   ar
    31    19    24    1
    32    24    25    1
    33    19     9   ar
    34    17    11   ar
    35     8     1    1
    36    35    26    1
    37    34    29   ar
    38    16    20    1
    39    16    21    1
@<TRIPOS>MOLECULE
*****
 35 39 0 0 0
SMALL
GASTEIGER

@<TRIPOS>ATOM
      1 N         141.8993  139.4420  158.6444 N.pl3   1  UNL1       -0.2747
      2 C         141.4773  139.3594  160.0815 C.3     1  UNL1        0.1151
      3 C         141.5639  140.5725  160.9595 C.3     1  UNL1        0.1150
      4 N         142.0725  141.8682  160.4006 N.am    1  UNL1       -0.2730
      5 C         142.1591  143.0812  161.2786 C.2     1  UNL1        0.2699
      6 O         142.6678  144.3769  160.7197 O.2     1  UNL1       -0.2708
      7 C         142.4946  141.9508  158.9636 C.3     1  UNL1        0.1150
      8 C         142.4080  140.7378  158.0855 C.3     1  UNL1        0.1151
      9 C         143.6662  133.6077  156.2805 C.ar    1  UNL1        0.1739
     10 C         143.7528  134.8207  157.1586 C.ar    1  UNL1        0.0593
     11 C         142.7395  135.9183  157.0234 C.ar    1  UNL1        0.0901
     12 N         142.8261  137.1314  157.9016 N.ar    1  UNL1       -0.2134
     13 C         141.8127  138.2290  157.7664 C.ar    1  UNL1        0.2214
     14 N         140.7127  138.1136  156.7530 N.ar    1  UNL1       -0.1991
     15 C         140.6261  136.9006  155.8750 C.ar    1  UNL1        0.1298
     16 N         139.5262  136.7852  154.8617 N.pl3   1  UNL1       -0.3425
     17 C         141.6395  135.8030  156.0102 C.ar    1  UNL1        0.0522
     18 C         141.5529  134.5899  155.1321 C.ar    1  UNL1        0.0443
     19 C         142.5663  133.4923  155.2673 C.ar    1  UNL1        0.1726
     20 H         138.8611  137.5056  154.7730 H       1  UNL1        0.1437
     21 H         139.4693  135.9891  154.2854 H       1  UNL1        0.1437
     22 C         145.2548  132.1819  157.7616 C.3     1  UNL1        0.2526
     23 O         144.6796  132.5100  156.4157 O.3     1  UNL1       -0.4683
     24 O         142.4796  132.2792  154.3891 O.3     1  UNL1       -0.4684
     25 C         141.6831  131.0879  154.8323 C.3     1  UNL1        0.2526
     26 C         141.7371  142.9985  162.7157 C.3     1  UNL1        0.2845
     27 C         140.3092  143.2589  163.0941 C.3     1  UNL1        0.2583
     28 O         139.8871  143.1763  164.5311 O.3     1  UNL1       -0.4679
     29 C         140.8929  142.8333  165.5897 C.ar    1  UNL1        0.1724
     30 C         140.4709  142.7506  167.0267 C.ar    1  UNL1        0.0400
     31 C         141.4768  142.4076  168.0853 C.ar    1  UNL1        0.0033
     32 C         142.9047  142.1472  167.7069 C.ar    1  UNL1        0.0033
     33 C         143.3267  142.2299  166.2698 C.ar    1  UNL1        0.0401
     34 C         142.3209  142.5729  165.2113 C.ar    1  UNL1        0.1729
     35 O         142.7430  142.6555  163.7742 O.3     1  UNL1       -0.4630
@<TRIPOS>BOND
     1    22    23    1
     2    23     9    1
     3     9    10   ar
     4    10    11   ar
     5    11    12   ar
     6    12    13   ar
     7    13     1    1
     8     1     2    1
     9     2     3    1
    10     3     4    1
    11     4     5   am
    12     5     6    2
    13     5    26    1
    14    26    27    1
    15    27    28    1
    16    28    29    1
    17    29    30   ar
    18    30    31   ar
    19    31    32   ar
    20    32    33   ar
    21    33    34   ar
    22    34    35    1
    23     4     7    1
    24     7     8    1
    25    13    14   ar
    26    14    15   ar
    27    15    16    1
    28    15    17   ar
    29    17    18   ar
    30    18    19   ar
    31    19    24    1
    32    24    25    1
    33    19     9   ar
    34    17    11   ar
    35     8     1    1
    36    35    26    1
    37    34    29   ar
    38    16    20    1
    39    16    21    1
