@<TRIPOS>MOLECULE
*****
 19 21 0 0 0
SMALL
GASTEIGER

@<TRIPOS>ATOM
      1 C         140.0851  140.4403  167.5111 C.3     1  UNL1        0.0364
      2 C         140.0317  140.2010  168.9909 C.3     1  UNL1        0.0236
      3 C         140.2873  139.9174  170.4415 C.3     1  UNL1        0.0690
      4 N         141.7545  139.6558  170.6110 N.3     1  UNL1       -0.2972
      5 C         142.4057  139.7777  169.2653 C.3     1  UNL1        0.0727
      6 C         141.3409  140.1146  168.2639 C.3     1  UNL1        0.0372
      7 H         141.8981  138.7163  170.9812 H       1  UNL1        0.1233
      8 C         142.2546  140.1684  167.0755 C.ar    1  UNL1       -0.0205
      9 C         142.6198  138.9059  166.3525 C.ar    1  UNL1       -0.0033
     10 C         143.5335  138.9597  165.1640 C.ar    1  UNL1        0.0119
     11 C         144.0820  140.2759  164.6988 C.ar    1  UNL1        0.0682
     12 CL        144.9957  140.3297  163.5104 Cl      1  UNL1       -0.0814
     13 C         143.7168  141.5384  165.4218 C.ar    1  UNL1        0.0679
     14 CL        144.2654  142.8547  164.9565 Cl      1  UNL1       -0.0814
     15 C         142.8031  141.4846  166.6102 C.ar    1  UNL1        0.0080
     16 C         139.3909  140.7665  166.2220 C.3     1  UNL1        0.1425
     17 O         138.2755  139.8931  165.7290 O.3     1  UNL1       -0.3538
     18 C         139.3392  137.6455  164.9764 C.3     1  UNL1        0.0346
     19 C         138.3817  138.4017  165.8489 C.3     1  UNL1        0.1422
@<TRIPOS>BOND
     1    18    19    1
     2    19    17    1
     3    17    16    1
     4     1    16    1
     5     1     2    1
     6     2     3    1
     7     3     4    1
     8     4     5    1
     9     5     6    1
    10     6     8    1
    11     8     9   ar
    12     9    10   ar
    13    10    11   ar
    14    11    12    1
    15    11    13   ar
    16    13    14    1
    17    13    15   ar
    18     6     1    1
    19    15     8   ar
    20     6     2    1
    21     4     7    1
@<TRIPOS>MOLECULE
*****
 19 21 0 0 0
SMALL
GASTEIGER

@<TRIPOS>ATOM
      1 C         142.3980  139.7932  167.1065 C.3     1  UNL1        0.0364
      2 C         142.5017  139.3998  168.5503 C.3     1  UNL1        0.0236
      3 C         142.3085  139.1066  170.0086 C.3     1  UNL1        0.0690
      4 N         140.9106  139.5037  170.3800 N.3     1  UNL1       -0.2972
      5 C         140.2397  140.0423  169.1513 C.3     1  UNL1        0.0727
      6 C         141.2231  139.9781  168.0204 C.3     1  UNL1        0.0372
      7 H         140.9355  140.2219  171.1038 H       1  UNL1        0.1233
      8 C         140.3066  140.5553  166.9827 C.ar    1  UNL1       -0.0205
      9 C         139.3112  139.6744  166.2876 C.ar    1  UNL1       -0.0033
     10 C         138.3947  140.2517  165.2499 C.ar    1  UNL1        0.0119
     11 C         138.4736  141.7098  164.9073 C.ar    1  UNL1        0.0682
     12 CL        137.5571  142.2871  163.8696 Cl      1  UNL1       -0.0814
     13 C         139.4690  142.5908  165.6024 C.ar    1  UNL1        0.0679
     14 CL        139.5479  144.0490  165.2598 Cl      1  UNL1       -0.0814
     15 C         140.3855  142.0135  166.6401 C.ar    1  UNL1        0.0080
     16 C         143.0166  139.9135  165.7453 C.3     1  UNL1        0.1425
     17 O         143.1954  138.6928  164.8921 O.3     1  UNL1       -0.3538
     18 C         141.1638  137.1260  164.4833 C.3     1  UNL1        0.0346
     19 C         142.0748  138.2211  164.0136 C.3     1  UNL1        0.1422
@<TRIPOS>BOND
     1    18    19    1
     2    19    17    1
     3    17    16    1
     4     1    16    1
     5     1     2    1
     6     2     3    1
     7     3     4    1
     8     4     5    1
     9     5     6    1
    10     6     8    1
    11     8     9   ar
    12     9    10   ar
    13    10    11   ar
    14    11    12    1
    15    11    13   ar
    16    13    14    1
    17    13    15   ar
    18     6     1    1
    19    15     8   ar
    20     6     2    1
    21     4     7    1
@<TRIPOS>MOLECULE
*****
 19 21 0 0 0
SMALL
GASTEIGER

@<TRIPOS>ATOM
      1 C         142.7461  141.8467  167.1710 C.3     1  UNL1        0.0364
      2 C         142.9596  142.3085  168.5821 C.3     1  UNL1        0.0236
      3 C         142.8654  142.8300  169.9853 C.3     1  UNL1        0.0690
      4 N         141.4379  143.2120  170.2430 N.3     1  UNL1       -0.2972
      5 C         140.6499  142.9266  168.9989 C.3     1  UNL1        0.0727
      6 C         141.5903  142.3682  167.9724 C.3     1  UNL1        0.0372
      7 H         141.3806  144.2050  170.4688 H       1  UNL1        0.1233
      8 C         140.5607  142.1918  166.8959 C.ar    1  UNL1       -0.0205
      9 C         140.2561  143.3213  165.9572 C.ar    1  UNL1       -0.0033
     10 C         139.2265  143.1449  164.8807 C.ar    1  UNL1        0.0119
     11 C         138.5016  141.8391  164.7430 C.ar    1  UNL1        0.0682
     12 CL        137.4719  141.6627  163.6665 Cl      1  UNL1       -0.0814
     13 C         138.8062  140.7095  165.6818 C.ar    1  UNL1        0.0679
     14 CL        138.0812  139.4035  165.5442 Cl      1  UNL1       -0.0814
     15 C         139.8358  140.8859  166.7583 C.ar    1  UNL1        0.0080
     16 C         143.2901  141.2790  165.8936 C.3     1  UNL1        0.1425
     17 O         144.2844  142.0619  165.0884 O.3     1  UNL1       -0.3538
     18 C         143.6528  144.4499  164.2831 C.3     1  UNL1        0.0346
     19 C         144.3706  143.5512  165.2459 C.3     1  UNL1        0.1422
@<TRIPOS>BOND
     1    18    19    1
     2    19    17    1
     3    17    16    1
     4     1    16    1
     5     1     2    1
     6     2     3    1
     7     3     4    1
     8     4     5    1
     9     5     6    1
    10     6     8    1
    11     8     9   ar
    12     9    10   ar
    13    10    11   ar
    14    11    12    1
    15    11    13   ar
    16    13    14    1
    17    13    15   ar
    18     6     1    1
    19    15     8   ar
    20     6     2    1
    21     4     7    1
@<TRIPOS>MOLECULE
*****
 19 21 0 0 0
SMALL
GASTEIGER

@<TRIPOS>ATOM
      1 C         142.7005  142.1803  167.0637 C.3     1  UNL1        0.0364
      2 C         143.2841  142.2777  168.4420 C.3     1  UNL1        0.0236
      3 C         143.7557  142.0839  169.8527 C.3     1  UNL1        0.0690
      4 N         143.3418  140.7118  170.2955 N.3     1  UNL1       -0.2972
      5 C         142.6144  140.0576  169.1584 C.3     1  UNL1        0.0727
      6 C         142.5788  141.0253  168.0129 C.3     1  UNL1        0.0372
      7 H         142.7265  140.7806  171.1061 H       1  UNL1        0.1233
      8 C         141.8260  140.1296  167.0743 C.ar    1  UNL1       -0.0205
      9 C         142.5719  139.1879  166.1761 C.ar    1  UNL1       -0.0033
     10 C         141.8191  138.2922  165.2374 C.ar    1  UNL1        0.0119
     11 C         140.3204  138.3381  165.1971 C.ar    1  UNL1        0.0682
     12 CL        139.5676  137.4424  164.2585 Cl      1  UNL1       -0.0814
     13 C         139.5745  139.2798  166.0954 C.ar    1  UNL1        0.0679
     14 CL        138.0757  139.3257  166.0550 Cl      1  UNL1       -0.0814
     15 C         140.3273  140.1755  167.0340 C.ar    1  UNL1        0.0080
     16 C         142.4338  142.7910  165.7198 C.3     1  UNL1        0.1425
     17 O         141.0448  143.2241  165.3551 O.3     1  UNL1       -0.3538
     18 C         141.0012  141.5007  163.4114 C.3     1  UNL1        0.0346
     19 C         140.3762  142.6537  164.1395 C.3     1  UNL1        0.1422
@<TRIPOS>BOND
     1    18    19    1
     2    19    17    1
     3    17    16    1
     4     1    16    1
     5     1     2    1
     6     2     3    1
     7     3     4    1
     8     4     5    1
     9     5     6    1
    10     6     8    1
    11     8     9   ar
    12     9    10   ar
    13    10    11   ar
    14    11    12    1
    15    11    13   ar
    16    13    14    1
    17    13    15   ar
    18     6     1    1
    19    15     8   ar
    20     6     2    1
    21     4     7    1
@<TRIPOS>MOLECULE
*****
 19 21 0 0 0
SMALL
GASTEIGER

@<TRIPOS>ATOM
      1 C         140.6843  142.5518  167.4044 C.3     1  UNL1        0.0364
      2 C         140.3139  142.8067  168.8354 C.3     1  UNL1        0.0236
      3 C         139.9110  142.7501  170.2792 C.3     1  UNL1        0.0690
      4 N         139.6781  141.3127  170.6393 N.3     1  UNL1       -0.2972
      5 C         139.9371  140.4810  169.4182 C.3     1  UNL1        0.0727
      6 C         140.3301  141.4044  168.3033 C.3     1  UNL1        0.0372
      7 H         138.7141  141.1848  170.9472 H       1  UNL1        0.1233
      8 C         140.5150  140.3328  167.2700 C.ar    1  UNL1       -0.0205
      9 C         139.3256  139.7778  166.5440 C.ar    1  UNL1       -0.0033
     10 C         139.5105  138.7062  165.5107 C.ar    1  UNL1        0.0119
     11 C         140.8848  138.1898  165.2036 C.ar    1  UNL1        0.0682
     12 CL        141.0697  137.1182  164.1703 Cl      1  UNL1       -0.0814
     13 C         142.0742  138.7448  165.9296 C.ar    1  UNL1        0.0679
     14 CL        143.4487  138.2283  165.6225 Cl      1  UNL1       -0.0814
     15 C         141.8893  139.8164  166.9629 C.ar    1  UNL1        0.0080
     16 C         141.1028  143.0670  166.0593 C.3     1  UNL1        0.1425
     17 O         140.1754  142.9427  164.8869 O.3     1  UNL1       -0.3538
     18 C         138.5527  144.8877  165.4645 C.3     1  UNL1        0.0346
     19 C         138.7811  143.4893  164.9722 C.3     1  UNL1        0.1422
@<TRIPOS>BOND
     1    18    19    1
     2    19    17    1
     3    17    16    1
     4     1    16    1
     5     1     2    1
     6     2     3    1
     7     3     4    1
     8     4     5    1
     9     5     6    1
    10     6     8    1
    11     8     9   ar
    12     9    10   ar
    13    10    11   ar
    14    11    12    1
    15    11    13   ar
    16    13    14    1
    17    13    15   ar
    18     6     1    1
    19    15     8   ar
    20     6     2    1
    21     4     7    1
@<TRIPOS>MOLECULE
*****
 19 21 0 0 0
SMALL
GASTEIGER

@<TRIPOS>ATOM
      1 C         142.6248  141.9207  167.1558 C.3     1  UNL1        0.0364
      2 C         142.8259  142.3517  168.5784 C.3     1  UNL1        0.0236
      3 C         142.7180  142.8360  169.9940 C.3     1  UNL1        0.0690
      4 N         141.2822  143.1809  170.2577 N.3     1  UNL1       -0.2972
      5 C         140.5027  142.9098  169.0052 C.3     1  UNL1        0.0727
      6 C         141.4568  142.3973  167.9673 C.3     1  UNL1        0.0372
      7 H         141.2033  144.1666  170.5080 H       1  UNL1        0.1233
      8 C         140.4331  142.2258  166.8843 C.ar    1  UNL1       -0.0205
      9 C         140.0945  143.3763  165.9834 C.ar    1  UNL1       -0.0033
     10 C         139.0709  143.2048  164.9004 C.ar    1  UNL1        0.0119
     11 C         138.3858  141.8829  164.7185 C.ar    1  UNL1        0.0682
     12 CL        137.3621  141.7114  163.6356 Cl      1  UNL1       -0.0814
     13 C         138.7244  140.7324  165.6195 C.ar    1  UNL1        0.0679
     14 CL        138.0393  139.4104  165.4376 Cl      1  UNL1       -0.0814
     15 C         139.7480  140.9039  166.7025 C.ar    1  UNL1        0.0080
     16 C         143.1831  141.3967  165.8660 C.3     1  UNL1        0.1425
     17 O         143.6529  139.9751  165.7747 O.3     1  UNL1       -0.3538
     18 C         141.8276  138.2555  165.0958 C.3     1  UNL1        0.0346
     19 C         142.7251  138.8538  166.1381 C.3     1  UNL1        0.1422
@<TRIPOS>BOND
     1    18    19    1
     2    19    17    1
     3    17    16    1
     4     1    16    1
     5     1     2    1
     6     2     3    1
     7     3     4    1
     8     4     5    1
     9     5     6    1
    10     6     8    1
    11     8     9   ar
    12     9    10   ar
    13    10    11   ar
    14    11    12    1
    15    11    13   ar
    16    13    14    1
    17    13    15   ar
    18     6     1    1
    19    15     8   ar
    20     6     2    1
    21     4     7    1
@<TRIPOS>MOLECULE
*****
 19 21 0 0 0
SMALL
GASTEIGER

@<TRIPOS>ATOM
      1 C         144.3837  139.6708  163.2645 C.3     1  UNL1        0.0364
      2 C         143.9503  138.7718  162.1447 C.3     1  UNL1        0.0236
      3 C         143.2798  137.8018  161.2175 C.3     1  UNL1        0.0690
      4 N         142.0554  137.2743  161.9049 N.3     1  UNL1       -0.2972
      5 C         141.9691  137.9183  163.2569 C.3     1  UNL1        0.0727
      6 C         143.1402  138.8438  163.4051 C.3     1  UNL1        0.0372
      7 H         142.1251  136.2619  162.0076 H       1  UNL1        0.1233
      8 C         142.7940  139.3148  164.7865 C.ar    1  UNL1       -0.0205
      9 C         143.2916  138.5596  165.9832 C.ar    1  UNL1       -0.0033
     10 C         142.9454  139.0307  167.3646 C.ar    1  UNL1        0.0119
     11 C         142.1016  140.2569  167.5493 C.ar    1  UNL1        0.0682
     12 CL        141.7554  140.7280  168.9307 Cl      1  UNL1       -0.0814
     13 C         141.6040  141.0122  166.3526 C.ar    1  UNL1        0.0679
     14 CL        140.7601  142.2385  166.5373 Cl      1  UNL1       -0.0814
     15 C         141.9502  140.5411  164.9712 C.ar    1  UNL1        0.0080
     16 C         145.3519  140.6673  163.8298 C.3     1  UNL1        0.1425
     17 O         145.3842  142.0683  163.2950 O.3     1  UNL1       -0.3538
     18 C         144.4118  143.3551  165.3318 C.3     1  UNL1        0.0346
     19 C         144.4557  143.1057  163.8533 C.3     1  UNL1        0.1422
@<TRIPOS>BOND
     1    18    19    1
     2    19    17    1
     3    17    16    1
     4     1    16    1
     5     1     2    1
     6     2     3    1
     7     3     4    1
     8     4     5    1
     9     5     6    1
    10     6     8    1
    11     8     9   ar
    12     9    10   ar
    13    10    11   ar
    14    11    12    1
    15    11    13   ar
    16    13    14    1
    17    13    15   ar
    18     6     1    1
    19    15     8   ar
    20     6     2    1
    21     4     7    1
@<TRIPOS>MOLECULE
*****
 19 21 0 0 0
SMALL
GASTEIGER

@<TRIPOS>ATOM
      1 C         140.4204  142.6397  167.1823 C.3     1  UNL1        0.0364
      2 C         140.4300  143.1861  168.5792 C.3     1  UNL1        0.0236
      3 C         140.7316  143.6188  169.9834 C.3     1  UNL1        0.0690
      4 N         142.1311  143.1891  170.3102 N.3     1  UNL1       -0.2972
      5 C         142.6943  142.4908  169.1081 C.3     1  UNL1        0.0727
      6 C         141.6430  142.4890  168.0382 C.3     1  UNL1        0.0372
      7 H         142.1205  142.5523  171.1070 H       1  UNL1        0.1233
      8 C         142.4618  141.7592  167.0150 C.ar    1  UNL1       -0.0205
      9 C         143.2467  142.5290  165.9946 C.ar    1  UNL1       -0.0033
     10 C         144.0655  141.7992  164.9714 C.ar    1  UNL1        0.0119
     11 C         144.0993  140.2997  164.9685 C.ar    1  UNL1        0.0682
     12 CL        144.9181  139.5699  163.9453 Cl      1  UNL1       -0.0814
     13 C         143.3144  139.5299  165.9889 C.ar    1  UNL1        0.0679
     14 CL        143.3482  138.0302  165.9860 Cl      1  UNL1       -0.0814
     15 C         142.4955  140.2596  167.0121 C.ar    1  UNL1        0.0080
     16 C         139.7090  142.4113  165.8816 C.3     1  UNL1        0.1425
     17 O         139.1160  141.0676  165.5770 O.3     1  UNL1       -0.3538
     18 C         140.7057  140.7681  163.5440 C.3     1  UNL1        0.0346
     19 C         139.7491  140.1857  164.5418 C.3     1  UNL1        0.1422
@<TRIPOS>BOND
     1    18    19    1
     2    19    17    1
     3    17    16    1
     4     1    16    1
     5     1     2    1
     6     2     3    1
     7     3     4    1
     8     4     5    1
     9     5     6    1
    10     6     8    1
    11     8     9   ar
    12     9    10   ar
    13    10    11   ar
    14    11    12    1
    15    11    13   ar
    16    13    14    1
    17    13    15   ar
    18     6     1    1
    19    15     8   ar
    20     6     2    1
    21     4     7    1
@<TRIPOS>MOLECULE
*****
 19 21 0 0 0
SMALL
GASTEIGER

@<TRIPOS>ATOM
      1 C         140.1038  140.1317  166.9134 C.3     1  UNL1        0.0364
      2 C         139.5737  140.1793  168.3158 C.3     1  UNL1        0.0236
      3 C         139.1906  140.5036  169.7293 C.3     1  UNL1        0.0690
      4 N         139.7833  141.8373  170.0758 N.3     1  UNL1       -0.2972
      5 C         140.5327  142.3372  168.8764 C.3     1  UNL1        0.0727
      6 C         140.4031  141.3125  167.7887 C.3     1  UNL1        0.0372
      7 H         140.4209  141.7380  170.8657 H       1  UNL1        0.1233
      8 C         141.2151  142.0593  166.7723 C.ar    1  UNL1       -0.0205
      9 C         142.7041  141.8840  166.7261 C.ar    1  UNL1       -0.0033
     10 C         143.5161  142.6308  165.7097 C.ar    1  UNL1        0.0119
     11 C         142.8390  143.5528  164.7395 C.ar    1  UNL1        0.0682
     12 CL        143.6510  144.2996  163.7231 Cl      1  UNL1       -0.0814
     13 C         141.3500  143.7281  164.7857 C.ar    1  UNL1        0.0679
     14 CL        140.6729  144.6503  163.8154 Cl      1  UNL1       -0.0814
     15 C         140.5381  142.9814  165.8021 C.ar    1  UNL1        0.0080
     16 C         140.2371  139.4225  165.5984 C.3     1  UNL1        0.1425
     17 O         141.1891  138.2716  165.4601 O.3     1  UNL1       -0.3538
     18 C         143.6305  138.2789  166.3486 C.3     1  UNL1        0.0346
     19 C         142.6505  138.5294  165.2410 C.3     1  UNL1        0.1422
@<TRIPOS>BOND
     1    18    19    1
     2    19    17    1
     3    17    16    1
     4     1    16    1
     5     1     2    1
     6     2     3    1
     7     3     4    1
     8     4     5    1
     9     5     6    1
    10     6     8    1
    11     8     9   ar
    12     9    10   ar
    13    10    11   ar
    14    11    12    1
    15    11    13   ar
    16    13    14    1
    17    13    15   ar
    18     6     1    1
    19    15     8   ar
    20     6     2    1
    21     4     7    1
