@<TRIPOS>MOLECULE
*****
 26 28 0 0 0
SMALL
GASTEIGER

@<TRIPOS>ATOM
      1 C         145.7103  141.7003  163.5895 C.3     1  UNL1        0.1893
      2 C         144.7986  140.8055  164.3756 C.ar    1  UNL1        0.1103
      3 C         144.8848  139.3101  164.4558 C.ar    1  UNL1        0.0396
      4 C         143.7800  138.8293  165.3493 C.ar    1  UNL1        0.1017
      5 N         143.0110  140.0275  165.8214 N.ar    1  UNL1       -0.2284
      6 N         143.6405  141.2489  165.2196 N.ar    1  UNL1       -0.1669
      7 C         141.8214  140.0079  166.7348 C.ar    1  UNL1        0.0852
      8 C         142.0005  140.2465  168.2047 C.ar    1  UNL1        0.0216
      9 C         140.8109  140.2269  169.1182 C.ar    1  UNL1        0.0335
     10 C         139.4421  139.9687  168.5616 C.ar    1  UNL1        0.1675
     11 F         138.2524  139.9491  169.4750 F       1  UNL1       -0.2018
     12 C         139.2630  139.7301  167.0915 C.ar    1  UNL1        0.1689
     13 F         137.8942  139.4719  166.5349 F       1  UNL1       -0.2017
     14 C         140.4526  139.7497  166.1781 C.ar    1  UNL1        0.0511
     15 O         145.5481  141.8168  162.1028 O.3     1  UNL1       -0.3458
     16 C         144.7051  142.9144  161.5241 C.3     1  UNL1        0.1600
     17 C         144.0892  143.9421  162.4265 C.3     1  UNL1        0.1047
     18 C         137.6035  142.1309  163.8068 C.3     1  UNL1        0.0948
     19 C         138.3874  143.3486  164.1976 C.2     1  UNL1        0.2262
     20 O         137.7458  144.4179  165.0311 O.2     1  UNL1       -0.2749
     21 N         139.8128  143.4970  163.7548 N.am    1  UNL1       -0.2767
     22 C         140.4545  142.4277  162.9213 C.3     1  UNL1        0.1107
     23 C         141.8799  142.5760  162.4785 C.3     1  UNL1        0.0940
     24 N         142.6638  143.7937  162.8693 N.3     1  UNL1       -0.2676
     25 C         142.0221  144.8631  163.7028 C.3     1  UNL1        0.0940
     26 C         140.5967  144.7147  164.1456 C.3     1  UNL1        0.1107
@<TRIPOS>BOND
     1    18    19    1
     2    19    20    2
     3    19    21   am
     4    21    22    1
     5    22    23    1
     6    23    24    1
     7    24    17    1
     8    17    16    1
     9    16    15    1
    10    15     1    1
    11     1     2    1
    12     2     3   ar
    13     3     4   ar
    14     4     5   ar
    15     5     7    1
    16     7     8   ar
    17     8     9   ar
    18     9    10   ar
    19    10    11    1
    20    10    12   ar
    21    12    13    1
    22    12    14   ar
    23     5     6   ar
    24    24    25    1
    25    25    26    1
    26    26    21    1
    27     6     2   ar
    28    14     7   ar
@<TRIPOS>MOLECULE
*****
 26 28 0 0 0
SMALL
GASTEIGER

@<TRIPOS>ATOM
      1 C         140.4552  137.4551  162.9705 C.3     1  UNL1        0.1893
      2 C         139.9490  138.0581  164.2473 C.ar    1  UNL1        0.1103
      3 C         138.7445  137.6066  165.0188 C.ar    1  UNL1        0.0396
      4 C         138.6095  138.4879  166.2251 C.ar    1  UNL1        0.1017
      5 N         139.7306  139.4841  166.1991 N.ar    1  UNL1       -0.2284
      6 N         140.5585  139.2184  164.9768 N.ar    1  UNL1       -0.1669
      7 C         139.9801  140.5575  167.2168 C.ar    1  UNL1        0.0852
      8 C         140.2353  141.9672  166.7727 C.ar    1  UNL1        0.0216
      9 C         140.4848  143.0406  167.7904 C.ar    1  UNL1        0.0335
     10 C         140.4791  142.7041  169.2521 C.ar    1  UNL1        0.1675
     11 F         140.7286  143.7775  170.2698 F       1  UNL1       -0.2018
     12 C         140.2240  141.2942  169.6962 C.ar    1  UNL1        0.1689
     13 F         140.2183  140.9577  171.1580 F       1  UNL1       -0.2017
     14 C         139.9745  140.2209  168.6785 C.ar    1  UNL1        0.0511
     15 O         140.2934  138.1951  161.6758 O.3     1  UNL1       -0.3458
     16 C         138.9801  138.1615  160.9518 C.3     1  UNL1        0.1600
     17 C         137.8434  139.0209  161.4200 C.3     1  UNL1        0.1047
     18 C         138.4397  144.7846  165.1178 C.3     1  UNL1        0.0948
     19 C         138.9410  144.4416  163.7464 C.2     1  UNL1        0.2262
     20 O         139.7167  145.4536  162.9565 O.2     1  UNL1       -0.2749
     21 N         138.6666  143.0864  163.1648 N.am    1  UNL1       -0.2767
     22 C         137.8909  142.0743  163.9546 C.3     1  UNL1        0.1107
     23 C         137.6165  140.7191  163.3730 C.3     1  UNL1        0.0940
     24 N         138.1178  140.3761  162.0016 N.3     1  UNL1       -0.2676
     25 C         138.8935  141.3882  161.2117 C.3     1  UNL1        0.0940
     26 C         139.1679  142.7433  161.7933 C.3     1  UNL1        0.1107
@<TRIPOS>BOND
     1    18    19    1
     2    19    20    2
     3    19    21   am
     4    21    22    1
     5    22    23    1
     6    23    24    1
     7    24    17    1
     8    17    16    1
     9    16    15    1
    10    15     1    1
    11     1     2    1
    12     2     3   ar
    13     3     4   ar
    14     4     5   ar
    15     5     7    1
    16     7     8   ar
    17     8     9   ar
    18     9    10   ar
    19    10    11    1
    20    10    12   ar
    21    12    13    1
    22    12    14   ar
    23     5     6   ar
    24    24    25    1
    25    25    26    1
    26    26    21    1
    27     6     2   ar
    28    14     7   ar
@<TRIPOS>MOLECULE
*****
 26 28 0 0 0
SMALL
GASTEIGER

@<TRIPOS>ATOM
      1 C         140.1193  145.6730  162.3113 C.3     1  UNL1        0.1893
      2 C         140.1262  144.7358  163.4824 C.ar    1  UNL1        0.1103
      3 C         139.1820  144.7734  164.6474 C.ar    1  UNL1        0.0396
      4 C         139.5507  143.6572  165.5792 C.ar    1  UNL1        0.1017
      5 N         140.7228  142.9298  164.9901 N.ar    1  UNL1       -0.2284
      6 N         141.0784  143.5963  163.6942 N.ar    1  UNL1       -0.1669
      7 C         141.4173  141.7439  165.5912 C.ar    1  UNL1        0.0852
      8 C         140.9291  141.1658  166.8863 C.ar    1  UNL1        0.0216
      9 C         141.6236  139.9800  167.4875 C.ar    1  UNL1        0.0335
     10 C         142.8064  139.3723  166.7935 C.ar    1  UNL1        0.1675
     11 F         143.5010  138.1863  167.3946 F       1  UNL1       -0.2018
     12 C         143.2946  139.9504  165.4983 C.ar    1  UNL1        0.1689
     13 F         144.4775  139.3426  164.8043 F       1  UNL1       -0.2017
     14 C         142.6001  141.1362  164.8971 C.ar    1  UNL1        0.0511
     15 O         139.4701  145.2597  161.0237 O.3     1  UNL1       -0.3458
     16 C         139.8247  143.9458  160.3930 C.3     1  UNL1        0.1600
     17 C         138.8408  142.8138  160.4143 C.3     1  UNL1        0.1047
     18 C         140.0266  137.7300  164.8863 C.3     1  UNL1        0.0948
     19 C         138.9783  138.8028  164.8744 C.2     1  UNL1        0.2262
     20 O         137.9644  138.8729  165.9776 O.2     1  UNL1       -0.2749
     21 N         138.9439  139.8056  163.7594 N.am    1  UNL1       -0.2767
     22 C         139.9578  139.7355  162.6562 C.3     1  UNL1        0.1107
     23 C         139.9234  140.7383  161.5412 C.3     1  UNL1        0.0940
     24 N         138.8752  141.8111  161.5293 N.3     1  UNL1       -0.2676
     25 C         137.8613  141.8811  162.6325 C.3     1  UNL1        0.0940
     26 C         137.8956  140.8784  163.7475 C.3     1  UNL1        0.1107
@<TRIPOS>BOND
     1    18    19    1
     2    19    20    2
     3    19    21   am
     4    21    22    1
     5    22    23    1
     6    23    24    1
     7    24    17    1
     8    17    16    1
     9    16    15    1
    10    15     1    1
    11     1     2    1
    12     2     3   ar
    13     3     4   ar
    14     4     5   ar
    15     5     7    1
    16     7     8   ar
    17     8     9   ar
    18     9    10   ar
    19    10    11    1
    20    10    12   ar
    21    12    13    1
    22    12    14   ar
    23     5     6   ar
    24    24    25    1
    25    25    26    1
    26    26    21    1
    27     6     2   ar
    28    14     7   ar
@<TRIPOS>MOLECULE
*****
 26 28 0 0 0
SMALL
GASTEIGER

@<TRIPOS>ATOM
      1 C         144.9155  139.5696  164.3618 C.3     1  UNL1        0.1893
      2 C         143.6202  139.5870  165.1180 C.ar    1  UNL1        0.1103
      3 C         142.4360  138.7035  164.8587 C.ar    1  UNL1        0.0396
      4 C         141.3655  139.0614  165.8467 C.ar    1  UNL1        0.1017
      5 N         141.8881  140.1660  166.7166 N.ar    1  UNL1       -0.2284
      6 N         143.2815  140.4908  166.2662 N.ar    1  UNL1       -0.1669
      7 C         141.1474  140.8294  167.8396 C.ar    1  UNL1        0.0852
      8 C         140.0464  140.0971  168.5477 C.ar    1  UNL1        0.0216
      9 C         139.3057  140.7604  169.6707 C.ar    1  UNL1        0.0335
     10 C         139.6660  142.1561  170.0857 C.ar    1  UNL1        0.1675
     11 F         138.9253  142.8195  171.2088 F       1  UNL1       -0.2018
     12 C         140.7671  142.8884  169.3776 C.ar    1  UNL1        0.1689
     13 F         141.1274  144.2842  169.7926 F       1  UNL1       -0.2017
     14 C         141.5078  142.2251  168.2545 C.ar    1  UNL1        0.0511
     15 O         145.5282  140.8565  163.8940 O.3     1  UNL1       -0.3458
     16 C         145.0474  141.4990  162.6267 C.3     1  UNL1        0.1600
     17 C         144.6761  142.9522  162.6167 C.3     1  UNL1        0.1047
     18 C         138.5159  144.6900  165.1230 C.3     1  UNL1        0.0948
     19 C         139.0143  144.6097  163.7106 C.2     1  UNL1        0.2262
     20 O         138.0972  144.9436  162.5716 O.2     1  UNL1       -0.2749
     21 N         140.4297  144.1953  163.4371 N.am    1  UNL1       -0.2767
     22 C         141.3468  143.8613  164.5761 C.3     1  UNL1        0.1107
     23 C         142.7623  143.4470  164.3026 C.3     1  UNL1        0.0940
     24 N         143.2606  143.3666  162.8901 N.3     1  UNL1       -0.2676
     25 C         142.3435  143.7006  161.7511 C.3     1  UNL1        0.0940
     26 C         140.9281  144.1149  162.0246 C.3     1  UNL1        0.1107
@<TRIPOS>BOND
     1    18    19    1
     2    19    20    2
     3    19    21   am
     4    21    22    1
     5    22    23    1
     6    23    24    1
     7    24    17    1
     8    17    16    1
     9    16    15    1
    10    15     1    1
    11     1     2    1
    12     2     3   ar
    13     3     4   ar
    14     4     5   ar
    15     5     7    1
    16     7     8   ar
    17     8     9   ar
    18     9    10   ar
    19    10    11    1
    20    10    12   ar
    21    12    13    1
    22    12    14   ar
    23     5     6   ar
    24    24    25    1
    25    25    26    1
    26    26    21    1
    27     6     2   ar
    28    14     7   ar
@<TRIPOS>MOLECULE
*****
 26 28 0 0 0
SMALL
GASTEIGER

@<TRIPOS>ATOM
      1 C         142.1617  144.2478  161.8377 C.3     1  UNL1        0.1893
      2 C         141.3892  143.5940  162.9450 C.ar    1  UNL1        0.1103
      3 C         140.8762  144.2711  164.1813 C.ar    1  UNL1        0.0396
      4 C         140.1641  143.2440  165.0107 C.ar    1  UNL1        0.1017
      5 N         140.2370  141.9321  164.2870 N.ar    1  UNL1       -0.2284
      6 N         140.9942  142.1485  163.0103 N.ar    1  UNL1       -0.1669
      7 C         139.6550  140.6321  164.7574 C.ar    1  UNL1        0.0852
      8 C         139.6099  139.4522  163.8324 C.ar    1  UNL1        0.0216
      9 C         139.0278  138.1523  164.3028 C.ar    1  UNL1        0.0335
     10 C         138.4909  138.0322  165.6982 C.ar    1  UNL1        0.1675
     11 F         137.9088  136.7322  166.1687 F       1  UNL1       -0.2018
     12 C         138.5360  139.2122  166.6233 C.ar    1  UNL1        0.1689
     13 F         137.9990  139.0921  168.0188 F       1  UNL1       -0.2017
     14 C         139.1180  140.5122  166.1529 C.ar    1  UNL1        0.0511
     15 O         143.6609  144.1983  161.8384 O.3     1  UNL1       -0.3458
     16 C         144.3704  142.9526  161.3968 C.3     1  UNL1        0.1600
     17 C         145.0747  142.0934  162.4045 C.3     1  UNL1        0.1047
     18 C         142.4142  142.1059  168.7425 C.3     1  UNL1        0.0948
     19 C         142.5256  141.0081  167.7265 C.2     1  UNL1        0.2262
     20 O         141.9997  139.6390  168.0410 O.2     1  UNL1       -0.2749
     21 N         143.1629  141.2795  166.3960 N.am    1  UNL1       -0.2767
     22 C         143.6888  142.6486  166.0815 C.3     1  UNL1        0.1107
     23 C         144.3260  142.9199  164.7510 C.3     1  UNL1        0.0940
     24 N         144.4374  141.8221  163.7350 N.3     1  UNL1       -0.2676
     25 C         143.9116  140.4530  164.0494 C.3     1  UNL1        0.0940
     26 C         143.2743  140.1817  165.3799 C.3     1  UNL1        0.1107
@<TRIPOS>BOND
     1    18    19    1
     2    19    20    2
     3    19    21   am
     4    21    22    1
     5    22    23    1
     6    23    24    1
     7    24    17    1
     8    17    16    1
     9    16    15    1
    10    15     1    1
    11     1     2    1
    12     2     3   ar
    13     3     4   ar
    14     4     5   ar
    15     5     7    1
    16     7     8   ar
    17     8     9   ar
    18     9    10   ar
    19    10    11    1
    20    10    12   ar
    21    12    13    1
    22    12    14   ar
    23     5     6   ar
    24    24    25    1
    25    25    26    1
    26    26    21    1
    27     6     2   ar
    28    14     7   ar
@<TRIPOS>MOLECULE
*****
 26 28 0 0 0
SMALL
GASTEIGER

@<TRIPOS>ATOM
      1 C         138.9976  137.6182  163.8671 C.3     1  UNL1        0.1893
      2 C         139.2359  138.4058  165.1212 C.ar    1  UNL1        0.1103
      3 C         138.1987  138.7787  166.1386 C.ar    1  UNL1        0.0396
      4 C         138.8750  139.5622  167.2243 C.ar    1  UNL1        0.1017
      5 N         140.3302  139.6736  166.8779 N.ar    1  UNL1       -0.2284
      6 N         140.5532  138.9589  165.5781 N.ar    1  UNL1       -0.1669
      7 C         141.3784  140.3763  167.6888 C.ar    1  UNL1        0.0852
      8 C         141.9470  141.6796  167.2117 C.ar    1  UNL1        0.0216
      9 C         142.9952  142.3823  168.0226 C.ar    1  UNL1        0.0335
     10 C         143.4746  141.7816  169.3107 C.ar    1  UNL1        0.1675
     11 F         144.5228  142.4842  170.1218 F       1  UNL1       -0.2018
     12 C         142.9059  140.4781  169.7879 C.ar    1  UNL1        0.1689
     13 F         143.3854  139.8773  171.0760 F       1  UNL1       -0.2017
     14 C         141.8577  139.7754  168.9769 C.ar    1  UNL1        0.0511
     15 O         139.1982  138.2624  162.5273 O.3     1  UNL1       -0.3458
     16 C         138.1100  138.2038  161.4965 C.3     1  UNL1        0.1600
     17 C         137.3810  139.4545  161.1036 C.3     1  UNL1        0.1047
     18 C         139.8419  145.7285  162.4568 C.3     1  UNL1        0.0948
     19 C         139.1032  144.7548  163.3264 C.2     1  UNL1        0.2262
     20 O         138.7950  145.1062  164.7517 O.2     1  UNL1       -0.2749
     21 N         138.6726  143.4297  162.7707 N.am    1  UNL1       -0.2767
     22 C         138.9808  143.0783  161.3454 C.3     1  UNL1        0.1107
     23 C         138.5503  141.7532  160.7897 C.3     1  UNL1        0.0940
     24 N         137.8116  140.7795  161.6593 N.3     1  UNL1       -0.2676
     25 C         137.5034  141.1310  163.0846 C.3     1  UNL1        0.0940
     26 C         137.9339  142.4561  163.6403 C.3     1  UNL1        0.1107
@<TRIPOS>BOND
     1    18    19    1
     2    19    20    2
     3    19    21   am
     4    21    22    1
     5    22    23    1
     6    23    24    1
     7    24    17    1
     8    17    16    1
     9    16    15    1
    10    15     1    1
    11     1     2    1
    12     2     3   ar
    13     3     4   ar
    14     4     5   ar
    15     5     7    1
    16     7     8   ar
    17     8     9   ar
    18     9    10   ar
    19    10    11    1
    20    10    12   ar
    21    12    13    1
    22    12    14   ar
    23     5     6   ar
    24    24    25    1
    25    25    26    1
    26    26    21    1
    27     6     2   ar
    28    14     7   ar
@<TRIPOS>MOLECULE
*****
 26 28 0 0 0
SMALL
GASTEIGER

@<TRIPOS>ATOM
      1 C         143.5555  139.1483  162.4976 C.3     1  UNL1        0.1893
      2 C         142.5205  139.5060  163.5228 C.ar    1  UNL1        0.1103
      3 C         141.1418  140.0247  163.2400 C.ar    1  UNL1        0.0396
      4 C         140.4517  140.2471  164.5532 C.ar    1  UNL1        0.1017
      5 N         141.4040  139.8659  165.6476 N.ar    1  UNL1       -0.2284
      6 N         142.6826  139.4079  165.0108 N.ar    1  UNL1       -0.1669
      7 C         141.1265  139.9312  167.1202 C.ar    1  UNL1        0.0852
      8 C         139.7419  140.2362  167.6097 C.ar    1  UNL1        0.0216
      9 C         139.4644  140.3015  169.0823 C.ar    1  UNL1        0.0335
     10 C         140.5716  140.0618  170.0655 C.ar    1  UNL1        0.1675
     11 F         140.2942  140.1271  171.5382 F       1  UNL1       -0.2018
     12 C         141.9563  139.7568  169.5760 C.ar    1  UNL1        0.1689
     13 F         143.0636  139.5170  170.5592 F       1  UNL1       -0.2017
     14 C         142.2338  139.6914  168.1033 C.ar    1  UNL1        0.0511
     15 O         144.4964  140.1976  161.9840 O.3     1  UNL1       -0.3458
     16 C         145.1243  141.1725  162.9356 C.3     1  UNL1        0.1600
     17 C         144.7843  142.6308  162.8481 C.3     1  UNL1        0.1047
     18 C         138.6158  144.7047  165.0614 C.3     1  UNL1        0.0948
     19 C         139.1258  144.4470  163.6745 C.2     1  UNL1        0.2262
     20 O         138.2212  144.6433  162.4943 O.2     1  UNL1       -0.2749
     21 N         140.5404  143.9929  163.4679 N.am    1  UNL1       -0.2767
     22 C         141.4451  143.7966  164.6482 C.3     1  UNL1        0.1107
     23 C         142.8597  143.3426  164.4416 C.3     1  UNL1        0.0940
     24 N         143.3697  143.0848  163.0547 N.3     1  UNL1       -0.2676
     25 C         142.4651  143.2811  161.8745 C.3     1  UNL1        0.0940
     26 C         141.0504  143.7352  162.0811 C.3     1  UNL1        0.1107
@<TRIPOS>BOND
     1    18    19    1
     2    19    20    2
     3    19    21   am
     4    21    22    1
     5    22    23    1
     6    23    24    1
     7    24    17    1
     8    17    16    1
     9    16    15    1
    10    15     1    1
    11     1     2    1
    12     2     3   ar
    13     3     4   ar
    14     4     5   ar
    15     5     7    1
    16     7     8   ar
    17     8     9   ar
    18     9    10   ar
    19    10    11    1
    20    10    12   ar
    21    12    13    1
    22    12    14   ar
    23     5     6   ar
    24    24    25    1
    25    25    26    1
    26    26    21    1
    27     6     2   ar
    28    14     7   ar
@<TRIPOS>MOLECULE
*****
 26 28 0 0 0
SMALL
GASTEIGER

@<TRIPOS>ATOM
      1 C         137.3320  141.1151  162.9216 C.3     1  UNL1        0.1893
      2 C         138.2751  141.6498  163.9582 C.ar    1  UNL1        0.1103
      3 C         138.6662  143.0868  164.1370 C.ar    1  UNL1        0.0396
      4 C         139.6256  143.1665  165.2874 C.ar    1  UNL1        0.1017
      5 N         139.8274  141.7787  165.8195 N.ar    1  UNL1       -0.2284
      6 N         138.9928  140.8413  164.9981 N.ar    1  UNL1       -0.1669
      7 C         140.7090  141.3954  166.9710 C.ar    1  UNL1        0.0852
      8 C         140.3559  140.2142  167.8253 C.ar    1  UNL1        0.0216
      9 C         141.2375  139.8310  168.9767 C.ar    1  UNL1        0.0335
     10 C         142.4723  140.6291  169.2738 C.ar    1  UNL1        0.1675
     11 F         143.3540  140.2459  170.4253 F       1  UNL1       -0.2018
     12 C         142.8255  141.8104  168.4195 C.ar    1  UNL1        0.1689
     13 F         144.0604  142.6084  168.7167 F       1  UNL1       -0.2017
     14 C         141.9439  142.1936  167.2680 C.ar    1  UNL1        0.0511
     15 O         137.8623  140.6235  161.6073 O.3     1  UNL1       -0.3458
     16 C         137.6927  139.1840  161.2214 C.3     1  UNL1        0.1600
     17 C         138.8565  138.2417  161.3094 C.3     1  UNL1        0.1047
     18 C         143.4724  138.4288  166.3994 C.3     1  UNL1        0.0948
     19 C         143.2962  139.3130  165.2006 C.2     1  UNL1        0.2262
     20 O         144.2298  140.4650  164.9747 O.2     1  UNL1       -0.2749
     21 N         142.1862  139.0452  164.2278 N.am    1  UNL1       -0.2767
     22 C         141.2526  137.8932  164.4538 C.3     1  UNL1        0.1107
     23 C         140.1427  137.6253  163.4810 C.3     1  UNL1        0.0940
     24 N         139.9664  138.5095  162.2822 N.3     1  UNL1       -0.2676
     25 C         140.9000  139.6616  162.0563 C.3     1  UNL1        0.0940
     26 C         142.0100  139.9294  163.0291 C.3     1  UNL1        0.1107
@<TRIPOS>BOND
     1    18    19    1
     2    19    20    2
     3    19    21   am
     4    21    22    1
     5    22    23    1
     6    23    24    1
     7    24    17    1
     8    17    16    1
     9    16    15    1
    10    15     1    1
    11     1     2    1
    12     2     3   ar
    13     3     4   ar
    14     4     5   ar
    15     5     7    1
    16     7     8   ar
    17     8     9   ar
    18     9    10   ar
    19    10    11    1
    20    10    12   ar
    21    12    13    1
    22    12    14   ar
    23     5     6   ar
    24    24    25    1
    25    25    26    1
    26    26    21    1
    27     6     2   ar
    28    14     7   ar
@<TRIPOS>MOLECULE
*****
 26 28 0 0 0
SMALL
GASTEIGER

@<TRIPOS>ATOM
      1 C         139.6965  137.4028  163.0636 C.3     1  UNL1        0.1893
      2 C         139.4683  138.4110  164.1504 C.ar    1  UNL1        0.1103
      3 C         138.3903  139.4538  164.1736 C.ar    1  UNL1        0.0396
      4 C         138.5337  140.2408  165.4425 C.ar    1  UNL1        0.1017
      5 N         139.7005  139.6844  166.2036 N.ar    1  UNL1       -0.2284
      6 N         140.2780  138.5536  165.4050 N.ar    1  UNL1       -0.1669
      7 C         140.2016  140.1731  167.5302 C.ar    1  UNL1        0.0852
      8 C         139.2993  140.1485  168.7281 C.ar    1  UNL1        0.0216
      9 C         139.8005  140.6371  170.0548 C.ar    1  UNL1        0.0335
     10 C         141.2040  141.1504  170.1834 C.ar    1  UNL1        0.1675
     11 F         141.7052  141.6391  171.5101 F       1  UNL1       -0.2018
     12 C         142.1064  141.1751  168.9855 C.ar    1  UNL1        0.1689
     13 F         143.5100  141.6884  169.1142 F       1  UNL1       -0.2017
     14 C         141.6052  140.6864  167.6588 C.ar    1  UNL1        0.0511
     15 O         140.6455  137.7096  161.9431 O.3     1  UNL1       -0.3458
     16 C         142.0457  138.1537  162.2466 C.3     1  UNL1        0.1600
     17 C         142.4542  139.5741  161.9903 C.3     1  UNL1        0.1047
     18 C         139.0437  144.7970  164.8780 C.3     1  UNL1        0.0948
     19 C         138.8200  144.0749  163.5825 C.2     1  UNL1        0.2262
     20 O         137.6878  144.4780  162.6851 O.2     1  UNL1       -0.2749
     21 N         139.7286  142.9497  163.1845 N.am    1  UNL1       -0.2767
     22 C         140.8608  142.5466  164.0819 C.3     1  UNL1        0.1107
     23 C         141.7694  141.4214  163.6839 C.3     1  UNL1        0.0940
     24 N         141.5457  140.6993  162.3883 N.3     1  UNL1       -0.2676
     25 C         140.4134  141.1023  161.4909 C.3     1  UNL1        0.0940
     26 C         139.5049  142.2275  161.8889 C.3     1  UNL1        0.1107
@<TRIPOS>BOND
     1    18    19    1
     2    19    20    2
     3    19    21   am
     4    21    22    1
     5    22    23    1
     6    23    24    1
     7    24    17    1
     8    17    16    1
     9    16    15    1
    10    15     1    1
    11     1     2    1
    12     2     3   ar
    13     3     4   ar
    14     4     5   ar
    15     5     7    1
    16     7     8   ar
    17     8     9   ar
    18     9    10   ar
    19    10    11    1
    20    10    12   ar
    21    12    13    1
    22    12    14   ar
    23     5     6   ar
    24    24    25    1
    25    25    26    1
    26    26    21    1
    27     6     2   ar
    28    14     7   ar
