@<TRIPOS>MOLECULE
*****
 35 39 0 0 0
SMALL
GASTEIGER

@<TRIPOS>ATOM
      1 C         139.9858  142.4032  160.7957 C.ar    1  UNL1        0.1233
      2 C         139.9878  142.1260  162.2699 C.ar    1  UNL1        0.1181
      3 N         138.6554  142.5392  162.8211 N.ar    1  UNL1       -0.2208
      4 N         137.8298  143.0718  161.6875 N.ar    1  UNL1       -0.0633
      5 N         138.6521  142.9877  160.4358 N.ar    1  UNL1       -0.1287
      6 C         143.1479  140.6964  159.1111 C.ar    1  UNL1        0.1547
      7 C         142.0152  140.9578  160.0590 C.ar    1  UNL1        0.0400
      8 C         141.1186  142.1418  159.8478 C.ar    1  UNL1        0.0241
      9 C         141.3549  143.0642  158.6889 C.ar    1  UNL1        0.0033
     10 C         142.4876  142.8028  157.7411 C.ar    1  UNL1        0.0207
     11 C         143.3842  141.6189  157.9522 C.ar    1  UNL1        0.0994
     12 N         144.5170  141.3574  157.0043 N.ar    1  UNL1       -0.2839
     13 C         144.5315  140.3328  155.9089 C.ar    1  UNL1        0.1826
     14 N         145.8576  140.4169  155.2130 N.ar    1  UNL1       -0.2280
     15 C         146.6628  141.4935  155.8784 C.ar    1  UNL1        0.0786
     16 C         148.0525  141.9149  155.5027 C.3     1  UNL1        0.0538
     17 C         145.8343  142.0748  156.9855 C.ar    1  UNL1        0.0963
     18 C         144.0018  138.7613  160.6199 C.3     1  UNL1        0.2525
     19 O         144.0445  139.5125  159.3223 O.3     1  UNL1       -0.4700
     20 C         138.2241  142.4376  164.2542 C.3     1  UNL1        0.2138
     21 C         139.1834  142.7884  165.3527 C.2     1  UNL1        0.2505
     22 O         139.5374  144.2234  165.6094 O.2     1  UNL1       -0.2727
     23 N         139.7886  141.7045  166.1945 N.am    1  UNL1       -0.2812
     24 C         140.7478  142.0553  167.2931 C.3     1  UNL1        0.0753
     25 C         142.2221  141.8681  167.0896 C.3     1  UNL1        0.0198
     26 C         143.1813  142.2189  168.1881 C.3     1  UNL1        0.0017
     27 C         142.6663  142.7569  169.4901 C.3     1  UNL1        0.0001
     28 C         141.1920  142.9442  169.6936 C.3     1  UNL1        0.0017
     29 C         140.2328  142.5934  168.5951 C.3     1  UNL1        0.0198
     30 C         139.4345  140.2696  165.9378 C.3     1  UNL1        0.0753
     31 C         140.2211  139.4697  164.9421 C.3     1  UNL1        0.0198
     32 C         139.8671  138.0348  164.6853 C.3     1  UNL1        0.0017
     33 C         138.7265  137.4000  165.4242 C.3     1  UNL1        0.0001
     34 C         137.9400  138.1999  166.4199 C.3     1  UNL1        0.0017
     35 C         138.2940  139.6348  166.6766 C.3     1  UNL1        0.0198
@<TRIPOS>BOND
     1    18    19    1
     2    19     6    1
     3     6     7   ar
     4     7     8   ar
     5     8     1    1
     6     1     2   ar
     7     2     3   ar
     8     3    20    1
     9    20    21    1
    10    21    22    2
    11    21    23   am
    12    23    24    1
    13    24    25    1
    14    25    26    1
    15    26    27    1
    16    27    28    1
    17    28    29    1
    18    23    30    1
    19    30    31    1
    20    31    32    1
    21    32    33    1
    22    33    34    1
    23    34    35    1
    24     3     4   ar
    25     4     5   ar
    26     8     9   ar
    27     9    10   ar
    28    10    11   ar
    29    11    12    1
    30    12    13   ar
    31    13    14   ar
    32    14    15   ar
    33    15    16    1
    34    15    17   ar
    35    11     6   ar
    36    17    12   ar
    37     5     1   ar
    38    29    24    1
    39    35    30    1
@<TRIPOS>MOLECULE
*****
 35 39 0 0 0
SMALL
GASTEIGER

@<TRIPOS>ATOM
      1 C         140.1865  138.5148  162.5254 C.ar    1  UNL1        0.1233
      2 C         139.8732  139.8015  163.2299 C.ar    1  UNL1        0.1181
      3 N         139.1666  139.4687  164.5105 N.ar    1  UNL1       -0.2208
      4 N         139.0432  137.9762  164.5975 N.ar    1  UNL1       -0.0633
      5 N         139.6735  137.3868  163.3706 N.ar    1  UNL1       -0.1287
      6 C         140.8493  138.5079  158.6126 C.ar    1  UNL1        0.1547
      7 C         140.1465  138.6428  159.9308 C.ar    1  UNL1        0.0400
      8 C         140.8894  138.3799  161.2071 C.ar    1  UNL1        0.0241
      9 C         142.3350  137.9820  161.1653 C.ar    1  UNL1        0.0033
     10 C         143.0378  137.8470  159.8470 C.ar    1  UNL1        0.0207
     11 C         142.2950  138.1100  158.5707 C.ar    1  UNL1        0.0994
     12 N         142.9978  137.9750  157.2524 N.ar    1  UNL1       -0.2839
     13 C         143.2639  136.6919  156.5223 C.ar    1  UNL1        0.1826
     14 N         143.9885  137.0234  155.2515 N.ar    1  UNL1       -0.2280
     15 C         144.1703  138.5114  155.1961 C.ar    1  UNL1        0.0786
     16 C         144.8458  139.2768  154.0971 C.3     1  UNL1        0.0538
     17 C         143.5580  139.0994  156.4327 C.ar    1  UNL1        0.0963
     18 C         139.5968  137.6237  156.5151 C.3     1  UNL1        0.2525
     19 O         140.1065  138.7708  157.3362 O.3     1  UNL1       -0.4700
     20 C         138.6705  140.4550  165.5259 C.3     1  UNL1        0.2138
     21 C         139.5104  140.7844  166.7243 C.2     1  UNL1        0.2505
     22 O         139.5535  139.8430  167.8915 O.2     1  UNL1       -0.2727
     23 N         140.3071  142.0548  166.7557 N.am    1  UNL1       -0.2812
     24 C         141.1469  142.3841  167.9541 C.3     1  UNL1        0.0753
     25 C         140.5635  143.1820  169.0824 C.3     1  UNL1        0.0198
     26 C         141.4034  143.5113  170.2808 C.3     1  UNL1        0.0017
     27 C         142.8266  143.0428  170.3509 C.3     1  UNL1        0.0001
     28 C         143.4100  142.2449  169.2226 C.3     1  UNL1        0.0017
     29 C         142.5701  141.9156  168.0242 C.3     1  UNL1        0.0198
     30 C         140.2639  142.9961  165.5885 C.3     1  UNL1        0.0753
     31 C         139.1452  143.9878  165.4657 C.3     1  UNL1        0.0198
     32 C         139.1020  144.9290  164.2986 C.3     1  UNL1        0.0017
     33 C         140.1775  144.8785  163.2542 C.3     1  UNL1        0.0001
     34 C         141.2961  143.8869  163.3770 C.3     1  UNL1        0.0017
     35 C         141.3393  142.9457  164.5441 C.3     1  UNL1        0.0198
@<TRIPOS>BOND
     1    18    19    1
     2    19     6    1
     3     6     7   ar
     4     7     8   ar
     5     8     1    1
     6     1     2   ar
     7     2     3   ar
     8     3    20    1
     9    20    21    1
    10    21    22    2
    11    21    23   am
    12    23    24    1
    13    24    25    1
    14    25    26    1
    15    26    27    1
    16    27    28    1
    17    28    29    1
    18    23    30    1
    19    30    31    1
    20    31    32    1
    21    32    33    1
    22    33    34    1
    23    34    35    1
    24     3     4   ar
    25     4     5   ar
    26     8     9   ar
    27     9    10   ar
    28    10    11   ar
    29    11    12    1
    30    12    13   ar
    31    13    14   ar
    32    14    15   ar
    33    15    16    1
    34    15    17   ar
    35    11     6   ar
    36    17    12   ar
    37     5     1   ar
    38    29    24    1
    39    35    30    1
@<TRIPOS>MOLECULE
*****
 35 39 0 0 0
SMALL
GASTEIGER

@<TRIPOS>ATOM
      1 C         143.7177  140.6935  161.7225 C.ar    1  UNL1        0.1233
      2 C         142.7273  141.4946  162.5146 C.ar    1  UNL1        0.1181
      3 N         143.4882  142.3188  163.5104 N.ar    1  UNL1       -0.2208
      4 N         144.9490  142.0271  163.3338 N.ar    1  UNL1       -0.0633
      5 N         145.0908  141.0227  162.2288 N.ar    1  UNL1       -0.1287
      6 C         142.9857  139.2559  158.0966 C.ar    1  UNL1        0.1547
      7 C         143.3111  140.2173  159.2010 C.ar    1  UNL1        0.0400
      8 C         143.3922  139.7321  160.6181 C.ar    1  UNL1        0.0241
      9 C         143.1479  138.2855  160.9307 C.ar    1  UNL1        0.0033
     10 C         142.8225  137.3242  159.8262 C.ar    1  UNL1        0.0207
     11 C         142.7413  137.8094  158.4092 C.ar    1  UNL1        0.0994
     12 N         142.4159  136.8479  157.3047 N.ar    1  UNL1       -0.2839
     13 C         141.1728  136.8574  156.4653 C.ar    1  UNL1        0.1826
     14 N         141.2650  135.7236  155.4876 N.ar    1  UNL1       -0.2280
     15 C         142.5652  135.0133  155.7228 C.ar    1  UNL1        0.0786
     16 C         143.0661  133.8181  154.9675 C.3     1  UNL1        0.0538
     17 C         143.2764  135.7082  156.8458 C.ar    1  UNL1        0.0963
     18 C         144.1610  139.9888  155.8985 C.3     1  UNL1        0.2525
     19 O         142.9046  139.7411  156.6795 O.3     1  UNL1       -0.4700
     20 C         142.8930  143.2681  164.5077 C.3     1  UNL1        0.2138
     21 C         142.4445  142.7643  165.8475 C.2     1  UNL1        0.2505
     22 O         143.4580  142.4448  166.9062 O.2     1  UNL1       -0.2727
     23 N         140.9827  142.5802  166.1286 N.am    1  UNL1       -0.2812
     24 C         140.5342  142.0765  167.4684 C.3     1  UNL1        0.0753
     25 C         140.4631  143.0144  168.6369 C.3     1  UNL1        0.0198
     26 C         140.0146  142.5107  169.9767 C.3     1  UNL1        0.0017
     27 C         139.6372  141.0691  170.1481 C.3     1  UNL1        0.0001
     28 C         139.7083  140.1311  168.9796 C.3     1  UNL1        0.0017
     29 C         140.1568  140.6349  167.6398 C.3     1  UNL1        0.0198
     30 C         139.9693  142.8998  165.0698 C.3     1  UNL1        0.0753
     31 C         139.4410  144.2972  164.9347 C.3     1  UNL1        0.0198
     32 C         138.4277  144.6168  163.8760 C.3     1  UNL1        0.0017
     33 C         137.9426  143.5390  162.9524 C.3     1  UNL1        0.0001
     34 C         138.4708  142.1417  163.0875 C.3     1  UNL1        0.0017
     35 C         139.4841  141.8221  164.1462 C.3     1  UNL1        0.0198
@<TRIPOS>BOND
     1    18    19    1
     2    19     6    1
     3     6     7   ar
     4     7     8   ar
     5     8     1    1
     6     1     2   ar
     7     2     3   ar
     8     3    20    1
     9    20    21    1
    10    21    22    2
    11    21    23   am
    12    23    24    1
    13    24    25    1
    14    25    26    1
    15    26    27    1
    16    27    28    1
    17    28    29    1
    18    23    30    1
    19    30    31    1
    20    31    32    1
    21    32    33    1
    22    33    34    1
    23    34    35    1
    24     3     4   ar
    25     4     5   ar
    26     8     9   ar
    27     9    10   ar
    28    10    11   ar
    29    11    12    1
    30    12    13   ar
    31    13    14   ar
    32    14    15   ar
    33    15    16    1
    34    15    17   ar
    35    11     6   ar
    36    17    12   ar
    37     5     1   ar
    38    29    24    1
    39    35    30    1
@<TRIPOS>MOLECULE
*****
 35 39 0 0 0
SMALL
GASTEIGER

@<TRIPOS>ATOM
      1 C         139.2353  141.1263  160.8518 C.ar    1  UNL1        0.1233
      2 C         139.2136  140.9581  162.3421 C.ar    1  UNL1        0.1181
      3 N         138.2890  141.9927  162.9119 N.ar    1  UNL1       -0.2208
      4 N         137.7392  142.8003  161.7737 N.ar    1  UNL1       -0.0633
      5 N         138.3241  142.2648  160.5005 N.ar    1  UNL1       -0.1287
      6 C         142.2373  139.0951  159.2356 C.ar    1  UNL1        0.1547
      7 C         141.4437  139.9204  160.2046 C.ar    1  UNL1        0.0400
      8 C         140.0289  140.3009  159.8827 C.ar    1  UNL1        0.0241
      9 C         139.4077  139.8559  158.5920 C.ar    1  UNL1        0.0033
     10 C         140.2013  139.0306  157.6231 C.ar    1  UNL1        0.0207
     11 C         141.6161  138.6501  157.9449 C.ar    1  UNL1        0.0994
     12 N         142.4098  137.8247  156.9759 N.ar    1  UNL1       -0.2839
     13 C         143.4855  138.3306  156.0611 C.ar    1  UNL1        0.1826
     14 N         144.0075  137.1670  155.2714 N.ar    1  UNL1       -0.2280
     15 C         143.2544  135.9419  155.6981 C.ar    1  UNL1        0.0786
     16 C         143.4537  134.5541  155.1650 C.3     1  UNL1        0.0538
     17 C         142.2669  136.3484  156.7515 C.ar    1  UNL1        0.0963
     18 C         144.1660  138.8546  160.9597 C.3     1  UNL1        0.2525
     19 O         143.6522  138.7146  159.5575 O.3     1  UNL1       -0.4700
     20 C         137.9701  142.1858  164.3649 C.3     1  UNL1        0.2138
     21 C         139.0600  142.5458  165.3306 C.2     1  UNL1        0.2505
     22 O         139.5079  143.9718  165.4584 O.2     1  UNL1       -0.2727
     23 N         139.7019  141.4801  166.1684 N.am    1  UNL1       -0.2812
     24 C         140.7918  141.8401  167.1341 C.3     1  UNL1        0.0753
     25 C         140.4551  142.1562  168.5612 C.3     1  UNL1        0.0198
     26 C         141.5450  142.5162  169.5269 C.3     1  UNL1        0.0017
     27 C         142.9716  142.5602  169.0654 C.3     1  UNL1        0.0001
     28 C         143.3083  142.2442  167.6383 C.3     1  UNL1        0.0017
     29 C         142.2184  141.8841  166.6726 C.3     1  UNL1        0.0198
     30 C         139.2540  140.0542  166.0405 C.3     1  UNL1        0.0753
     31 C         138.1206  139.5459  166.8814 C.3     1  UNL1        0.0198
     32 C         137.6727  138.1201  166.7536 C.3     1  UNL1        0.0017
     33 C         138.3581  137.2026  165.7849 C.3     1  UNL1        0.0001
     34 C         139.4913  137.7109  164.9440 C.3     1  UNL1        0.0017
     35 C         139.9393  139.1367  165.0718 C.3     1  UNL1        0.0198
@<TRIPOS>BOND
     1    18    19    1
     2    19     6    1
     3     6     7   ar
     4     7     8   ar
     5     8     1    1
     6     1     2   ar
     7     2     3   ar
     8     3    20    1
     9    20    21    1
    10    21    22    2
    11    21    23   am
    12    23    24    1
    13    24    25    1
    14    25    26    1
    15    26    27    1
    16    27    28    1
    17    28    29    1
    18    23    30    1
    19    30    31    1
    20    31    32    1
    21    32    33    1
    22    33    34    1
    23    34    35    1
    24     3     4   ar
    25     4     5   ar
    26     8     9   ar
    27     9    10   ar
    28    10    11   ar
    29    11    12    1
    30    12    13   ar
    31    13    14   ar
    32    14    15   ar
    33    15    16    1
    34    15    17   ar
    35    11     6   ar
    36    17    12   ar
    37     5     1   ar
    38    29    24    1
    39    35    30    1
@<TRIPOS>MOLECULE
*****
 35 39 0 0 0
SMALL
GASTEIGER

@<TRIPOS>ATOM
      1 C         139.5723  143.1537  160.7592 C.ar    1  UNL1        0.1233
      2 C         140.5016  142.1609  161.3922 C.ar    1  UNL1        0.1181
      3 N         139.8793  141.6963  162.6755 N.ar    1  UNL1       -0.2208
      4 N         138.5654  142.4020  162.8356 N.ar    1  UNL1       -0.0633
      5 N         138.3757  143.3027  161.6513 N.ar    1  UNL1       -0.1287
      6 C         139.3395  144.1194  156.9169 C.ar    1  UNL1        0.1547
      7 C         139.1122  143.4017  158.2142 C.ar    1  UNL1        0.0400
      8 C         139.7998  143.8715  159.4618 C.ar    1  UNL1        0.0241
      9 C         140.7147  145.0591  159.4120 C.ar    1  UNL1        0.0033
     10 C         140.9421  145.7768  158.1147 C.ar    1  UNL1        0.0207
     11 C         140.2545  145.3070  156.8671 C.ar    1  UNL1        0.0994
     12 N         140.4819  146.0248  155.5697 N.ar    1  UNL1       -0.2839
     13 C         141.3099  145.5293  154.4214 C.ar    1  UNL1        0.1826
     14 N         141.2610  146.5624  153.3349 N.ar    1  UNL1       -0.2280
     15 C         140.4026  147.6964  153.8118 C.ar    1  UNL1        0.0786
     16 C         140.0820  148.9436  153.0426 C.3     1  UNL1        0.0538
     17 C         139.9211  147.3641  155.1930 C.ar    1  UNL1        0.0963
     18 C         137.3405  144.2537  155.2628 C.3     1  UNL1        0.2525
     19 O         138.6519  143.6496  155.6693 O.3     1  UNL1       -0.4700
     20 C         140.4677  140.7008  163.6310 C.3     1  UNL1        0.2138
     21 C         140.5474  141.0220  165.0940 C.2     1  UNL1        0.2505
     22 O         139.6517  140.3141  166.0671 O.2     1  UNL1       -0.2727
     23 N         141.5226  142.0509  165.5840 N.am    1  UNL1       -0.2812
     24 C         141.6023  142.3721  167.0470 C.3     1  UNL1        0.0753
     25 C         140.4086  142.9392  167.7565 C.3     1  UNL1        0.0198
     26 C         140.4883  143.2604  169.2195 C.3     1  UNL1        0.0017
     27 C         141.7618  143.0145  169.9731 C.3     1  UNL1        0.0001
     28 C         142.9555  142.4474  169.2636 C.3     1  UNL1        0.0017
     29 C         142.8758  142.1262  167.8006 C.3     1  UNL1        0.0198
     30 C         142.4182  142.7587  164.6108 C.3     1  UNL1        0.0753
     31 C         142.0418  144.1164  164.0958 C.3     1  UNL1        0.0198
     32 C         142.9373  144.8242  163.1227 C.3     1  UNL1        0.0017
     33 C         144.2092  144.1744  162.6645 C.3     1  UNL1        0.0001
     34 C         144.5856  142.8168  163.1795 C.3     1  UNL1        0.0017
     35 C         143.6901  142.1090  164.1526 C.3     1  UNL1        0.0198
@<TRIPOS>BOND
     1    18    19    1
     2    19     6    1
     3     6     7   ar
     4     7     8   ar
     5     8     1    1
     6     1     2   ar
     7     2     3   ar
     8     3    20    1
     9    20    21    1
    10    21    22    2
    11    21    23   am
    12    23    24    1
    13    24    25    1
    14    25    26    1
    15    26    27    1
    16    27    28    1
    17    28    29    1
    18    23    30    1
    19    30    31    1
    20    31    32    1
    21    32    33    1
    22    33    34    1
    23    34    35    1
    24     3     4   ar
    25     4     5   ar
    26     8     9   ar
    27     9    10   ar
    28    10    11   ar
    29    11    12    1
    30    12    13   ar
    31    13    14   ar
    32    14    15   ar
    33    15    16    1
    34    15    17   ar
    35    11     6   ar
    36    17    12   ar
    37     5     1   ar
    38    29    24    1
    39    35    30    1
@<TRIPOS>MOLECULE
*****
 35 39 0 0 0
SMALL
GASTEIGER

@<TRIPOS>ATOM
      1 C         143.0151  140.4953  161.4868 C.ar    1  UNL1        0.1233
      2 C         141.7868  141.0934  162.1060 C.ar    1  UNL1        0.1181
      3 N         141.5137  140.3665  163.3894 N.ar    1  UNL1       -0.2208
      4 N         142.5734  139.3191  163.5634 N.ar    1  UNL1       -0.0633
      5 N         143.5013  139.3987  162.3875 N.ar    1  UNL1       -0.1287
      6 C         144.3317  140.3895  157.7444 C.ar    1  UNL1        0.1547
      7 C         143.7003  139.9656  159.0373 C.ar    1  UNL1        0.0400
      8 C         143.6465  140.9192  160.1939 C.ar    1  UNL1        0.0241
      9 C         144.2240  142.2968  160.0575 C.ar    1  UNL1        0.0033
     10 C         144.8554  142.7208  158.7646 C.ar    1  UNL1        0.0207
     11 C         144.9092  141.7671  157.6081 C.ar    1  UNL1        0.0994
     12 N         145.5406  142.1911  156.3151 N.ar    1  UNL1       -0.2839
     13 C         144.8139  142.6827  155.0985 C.ar    1  UNL1        0.1826
     14 N         145.8337  142.9933  154.0433 N.ar    1  UNL1       -0.2280
     15 C         147.1908  142.6936  154.6078 C.ar    1  UNL1        0.0786
     16 C         148.4993  142.8605  153.8936 C.3     1  UNL1        0.0538
     17 C         147.0096  142.1978  156.0118 C.ar    1  UNL1        0.0963
     18 C         143.1648  139.2074  155.7467 C.3     1  UNL1        0.2525
     19 O         144.3855  139.4358  156.5879 O.3     1  UNL1       -0.4700
     20 C         140.3801  140.6391  164.3331 C.3     1  UNL1        0.2138
     21 C         140.6586  140.9053  165.7828 C.2     1  UNL1        0.2505
     22 O         140.1304  139.9718  166.8317 O.2     1  UNL1       -0.2727
     23 N         141.4650  142.1047  166.1838 N.am    1  UNL1       -0.2812
     24 C         141.7434  142.3709  167.6335 C.3     1  UNL1        0.0753
     25 C         143.0913  142.0518  168.2092 C.3     1  UNL1        0.0198
     26 C         143.3697  142.3180  169.6588 C.3     1  UNL1        0.0017
     27 C         142.3003  142.9033  170.5328 C.3     1  UNL1        0.0001
     28 C         140.9525  143.2224  169.9571 C.3     1  UNL1        0.0017
     29 C         140.6740  142.9562  168.5074 C.3     1  UNL1        0.0198
     30 C         141.9931  143.0381  165.1349 C.3     1  UNL1        0.0753
     31 C         141.0831  144.0510  164.5055 C.3     1  UNL1        0.0198
     32 C         141.6111  144.9843  163.4567 C.3     1  UNL1        0.0017
     33 C         143.0491  144.9048  163.0372 C.3     1  UNL1        0.0001
     34 C         143.9590  143.8920  163.6666 C.3     1  UNL1        0.0017
     35 C         143.4310  142.9587  164.7154 C.3     1  UNL1        0.0198
@<TRIPOS>BOND
     1    18    19    1
     2    19     6    1
     3     6     7   ar
     4     7     8   ar
     5     8     1    1
     6     1     2   ar
     7     2     3   ar
     8     3    20    1
     9    20    21    1
    10    21    22    2
    11    21    23   am
    12    23    24    1
    13    24    25    1
    14    25    26    1
    15    26    27    1
    16    27    28    1
    17    28    29    1
    18    23    30    1
    19    30    31    1
    20    31    32    1
    21    32    33    1
    22    33    34    1
    23    34    35    1
    24     3     4   ar
    25     4     5   ar
    26     8     9   ar
    27     9    10   ar
    28    10    11   ar
    29    11    12    1
    30    12    13   ar
    31    13    14   ar
    32    14    15   ar
    33    15    16    1
    34    15    17   ar
    35    11     6   ar
    36    17    12   ar
    37     5     1   ar
    38    29    24    1
    39    35    30    1
@<TRIPOS>MOLECULE
*****
 35 39 0 0 0
SMALL
GASTEIGER

@<TRIPOS>ATOM
      1 C         140.9375  138.8329  161.2072 C.ar    1  UNL1        0.1233
      2 C         140.9017  140.2354  161.7380 C.ar    1  UNL1        0.1181
      3 N         140.6891  140.1644  163.2212 N.ar    1  UNL1       -0.2208
      4 N         140.5935  138.7179  163.6070 N.ar    1  UNL1       -0.0633
      5 N         140.7470  137.8951  162.3623 N.ar    1  UNL1       -0.1287
      6 C         140.1495  138.0163  157.4043 C.ar    1  UNL1        0.1547
      7 C         139.9571  138.4116  158.8384 C.ar    1  UNL1        0.0400
      8 C         141.1300  138.4376  159.7730 C.ar    1  UNL1        0.0241
      9 C         142.4953  138.0684  159.2736 C.ar    1  UNL1        0.0033
     10 C         142.6878  137.6732  157.8395 C.ar    1  UNL1        0.0207
     11 C         141.5149  137.6471  156.9049 C.ar    1  UNL1        0.0994
     12 N         141.7073  137.2518  155.4707 N.ar    1  UNL1       -0.2839
     13 C         142.2017  138.1422  154.3694 C.ar    1  UNL1        0.1826
     14 N         142.2392  137.3374  153.1042 N.ar    1  UNL1       -0.2280
     15 C         141.7679  135.9495  153.4235 C.ar    1  UNL1        0.0786
     16 C         141.6466  134.8140  152.4509 C.3     1  UNL1        0.0538
     17 C         141.4392  135.8967  154.8860 C.ar    1  UNL1        0.0963
     18 C         138.7354  139.1396  155.5366 C.3     1  UNL1        0.2525
     19 O         138.9766  137.9902  156.4696 O.3     1  UNL1       -0.4700
     20 C         140.5896  141.3343  164.1547 C.3     1  UNL1        0.2138
     21 C         140.7156  141.1258  165.6347 C.2     1  UNL1        0.2505
     22 O         139.4843  140.9805  166.4792 O.2     1  UNL1       -0.2727
     23 N         142.0727  141.0624  166.2704 N.am    1  UNL1       -0.2812
     24 C         142.1987  140.8538  167.7505 C.3     1  UNL1        0.0753
     25 C         142.3860  139.4706  168.2997 C.3     1  UNL1        0.0198
     26 C         142.5120  139.2621  169.7797 C.3     1  UNL1        0.0017
     27 C         142.4507  140.4367  170.7106 C.3     1  UNL1        0.0001
     28 C         142.2634  141.8199  170.1614 C.3     1  UNL1        0.0017
     29 C         142.1374  142.0285  168.6814 C.3     1  UNL1        0.0198
     30 C         143.3039  141.2076  165.4259 C.3     1  UNL1        0.0753
     31 C         143.8934  142.5661  165.1868 C.3     1  UNL1        0.0198
     32 C         145.1246  142.7113  164.3424 C.3     1  UNL1        0.0017
     33 C         145.7662  141.4981  163.7370 C.3     1  UNL1        0.0001
     34 C         145.1767  140.1398  163.9761 C.3     1  UNL1        0.0017
     35 C         143.9456  139.9945  164.8206 C.3     1  UNL1        0.0198
@<TRIPOS>BOND
     1    18    19    1
     2    19     6    1
     3     6     7   ar
     4     7     8   ar
     5     8     1    1
     6     1     2   ar
     7     2     3   ar
     8     3    20    1
     9    20    21    1
    10    21    22    2
    11    21    23   am
    12    23    24    1
    13    24    25    1
    14    25    26    1
    15    26    27    1
    16    27    28    1
    17    28    29    1
    18    23    30    1
    19    30    31    1
    20    31    32    1
    21    32    33    1
    22    33    34    1
    23    34    35    1
    24     3     4   ar
    25     4     5   ar
    26     8     9   ar
    27     9    10   ar
    28    10    11   ar
    29    11    12    1
    30    12    13   ar
    31    13    14   ar
    32    14    15   ar
    33    15    16    1
    34    15    17   ar
    35    11     6   ar
    36    17    12   ar
    37     5     1   ar
    38    29    24    1
    39    35    30    1
@<TRIPOS>MOLECULE
*****
 35 39 0 0 0
SMALL
GASTEIGER

@<TRIPOS>ATOM
      1 C         142.4315  142.0297  160.2334 C.ar    1  UNL1        0.1233
      2 C         142.5891  142.1280  161.7218 C.ar    1  UNL1        0.1181
      3 N         142.6366  143.5818  162.0879 N.ar    1  UNL1       -0.2208
      4 N         142.5083  144.3821  160.8257 N.ar    1  UNL1       -0.0633
      5 N         142.3815  143.4228  159.6795 N.ar    1  UNL1       -0.1287
      6 C         143.2033  139.2448  157.5133 C.ar    1  UNL1        0.1547
      7 C         143.2949  140.5134  158.3084 C.ar    1  UNL1        0.0400
      8 C         142.3398  140.7610  159.4383 C.ar    1  UNL1        0.0241
      9 C         141.2932  139.7400  159.7730 C.ar    1  UNL1        0.0033
     10 C         141.2016  138.4714  158.9779 C.ar    1  UNL1        0.0207
     11 C         142.1566  138.2238  157.8481 C.ar    1  UNL1        0.0994
     12 N         142.0650  136.9551  157.0530 N.ar    1  UNL1       -0.2839
     13 C         141.0313  136.6391  156.0130 C.ar    1  UNL1        0.1826
     14 N         141.3184  135.2684  155.4756 N.ar    1  UNL1       -0.2280
     15 C         142.5296  134.7373  156.1835 C.ar    1  UNL1        0.0786
     16 C         143.1674  133.3988  155.9563 C.3     1  UNL1        0.0538
     17 C         142.9910  135.7797  157.1583 C.ar    1  UNL1        0.0963
     18 C         143.8584  139.5360  155.0162 C.3     1  UNL1        0.2525
     19 O         144.1583  138.9971  156.3835 O.3     1  UNL1       -0.4700
     20 C         142.7861  144.1378  163.4730 C.3     1  UNL1        0.2138
     21 C         143.0533  143.2165  164.6262 C.2     1  UNL1        0.2505
     22 O         144.4653  142.8906  165.0142 O.2     1  UNL1       -0.2727
     23 N         141.9089  142.6212  165.3914 N.am    1  UNL1       -0.2812
     24 C         142.1761  141.7000  166.5446 C.3     1  UNL1        0.0753
     25 C         142.3669  140.2319  166.3031 C.3     1  UNL1        0.0198
     26 C         142.6341  139.3106  167.4563 C.3     1  UNL1        0.0017
     27 C         142.7105  139.8574  168.8510 C.3     1  UNL1        0.0001
     28 C         142.5196  141.3255  169.0925 C.3     1  UNL1        0.0017
     29 C         142.2524  142.2467  167.9393 C.3     1  UNL1        0.0198
     30 C         140.4970  142.9472  165.0034 C.3     1  UNL1        0.0753
     31 C         139.8625  144.2195  165.4817 C.3     1  UNL1        0.0198
     32 C         138.4507  144.5455  165.0937 C.3     1  UNL1        0.0017
     33 C         137.6734  143.5993  164.2275 C.3     1  UNL1        0.0001
     34 C         138.3079  142.3271  163.7492 C.3     1  UNL1        0.0017
     35 C         139.7197  142.0011  164.1372 C.3     1  UNL1        0.0198
@<TRIPOS>BOND
     1    18    19    1
     2    19     6    1
     3     6     7   ar
     4     7     8   ar
     5     8     1    1
     6     1     2   ar
     7     2     3   ar
     8     3    20    1
     9    20    21    1
    10    21    22    2
    11    21    23   am
    12    23    24    1
    13    24    25    1
    14    25    26    1
    15    26    27    1
    16    27    28    1
    17    28    29    1
    18    23    30    1
    19    30    31    1
    20    31    32    1
    21    32    33    1
    22    33    34    1
    23    34    35    1
    24     3     4   ar
    25     4     5   ar
    26     8     9   ar
    27     9    10   ar
    28    10    11   ar
    29    11    12    1
    30    12    13   ar
    31    13    14   ar
    32    14    15   ar
    33    15    16    1
    34    15    17   ar
    35    11     6   ar
    36    17    12   ar
    37     5     1   ar
    38    29    24    1
    39    35    30    1
@<TRIPOS>MOLECULE
*****
 35 39 0 0 0
SMALL
GASTEIGER

@<TRIPOS>ATOM
      1 C         140.7617  139.6144  161.6517 C.ar    1  UNL1        0.1233
      2 C         140.2430  140.5960  162.6603 C.ar    1  UNL1        0.1181
      3 N         139.4726  139.8326  163.6965 N.ar    1  UNL1       -0.2208
      4 N         139.5153  138.3791  163.3283 N.ar    1  UNL1       -0.0633
      5 N         140.3120  138.2442  162.0646 N.ar    1  UNL1       -0.1287
      6 C         142.8380  139.1846  158.2969 C.ar    1  UNL1        0.1547
      7 C         142.0141  138.8542  159.5061 C.ar    1  UNL1        0.0400
      8 C         141.5856  139.9448  160.4425 C.ar    1  UNL1        0.0241
      9 C         141.9810  141.3658  160.1698 C.ar    1  UNL1        0.0033
     10 C         142.8049  141.6962  158.9607 C.ar    1  UNL1        0.0207
     11 C         143.2334  140.6056  158.0242 C.ar    1  UNL1        0.0994
     12 N         144.0573  140.9360  156.8150 N.ar    1  UNL1       -0.2839
     13 C         143.5455  141.0826  155.4127 C.ar    1  UNL1        0.1826
     14 N         144.7095  141.4151  154.5269 N.ar    1  UNL1       -0.2280
     15 C         145.9407  141.4739  155.3819 C.ar    1  UNL1        0.0786
     16 C         147.3309  141.7757  154.9062 C.3     1  UNL1        0.0538
     17 C         145.5375  141.1778  156.7960 C.ar    1  UNL1        0.0963
     18 C         142.6930  136.7152  157.5025 C.3     1  UNL1        0.2525
     19 O         143.2664  138.0939  157.3605 O.3     1  UNL1       -0.4700
     20 C         138.7810  140.4196  164.8911 C.3     1  UNL1        0.2138
     21 C         139.5616  140.7236  166.1354 C.2     1  UNL1        0.2505
     22 O         139.7081  139.6796  167.2027 O.2     1  UNL1       -0.2727
     23 N         140.1957  142.0712  166.3126 N.am    1  UNL1       -0.2812
     24 C         140.9763  142.3752  167.5569 C.3     1  UNL1        0.0753
     25 C         140.3260  143.1149  168.6882 C.3     1  UNL1        0.0198
     26 C         141.1066  143.4189  169.9325 C.3     1  UNL1        0.0017
     27 C         142.5375  142.9831  170.0455 C.3     1  UNL1        0.0001
     28 C         143.1877  142.2433  168.9142 C.3     1  UNL1        0.0017
     29 C         142.4072  141.9394  167.6699 C.3     1  UNL1        0.0198
     30 C         140.0492  143.1151  165.2454 C.3     1  UNL1        0.0753
     31 C         141.2612  143.6245  164.5231 C.3     1  UNL1        0.0198
     32 C         141.1148  144.6684  163.4559 C.3     1  UNL1        0.0017
     33 C         139.7563  145.2028  163.1110 C.3     1  UNL1        0.0001
     34 C         138.5444  144.6935  163.8332 C.3     1  UNL1        0.0017
     35 C         138.6909  143.6496  164.9004 C.3     1  UNL1        0.0198
@<TRIPOS>BOND
     1    18    19    1
     2    19     6    1
     3     6     7   ar
     4     7     8   ar
     5     8     1    1
     6     1     2   ar
     7     2     3   ar
     8     3    20    1
     9    20    21    1
    10    21    22    2
    11    21    23   am
    12    23    24    1
    13    24    25    1
    14    25    26    1
    15    26    27    1
    16    27    28    1
    17    28    29    1
    18    23    30    1
    19    30    31    1
    20    31    32    1
    21    32    33    1
    22    33    34    1
    23    34    35    1
    24     3     4   ar
    25     4     5   ar
    26     8     9   ar
    27     9    10   ar
    28    10    11   ar
    29    11    12    1
    30    12    13   ar
    31    13    14   ar
    32    14    15   ar
    33    15    16    1
    34    15    17   ar
    35    11     6   ar
    36    17    12   ar
    37     5     1   ar
    38    29    24    1
    39    35    30    1
