@<TRIPOS>MOLECULE
*****
 33 35 0 0 0
SMALL
GASTEIGER

@<TRIPOS>ATOM
      1 C         139.5991  141.4390  165.9681 C.ar    1  UNL1        0.0740
      2 C         139.5072  139.9587  165.7441 C.ar    1  UNL1        0.1097
      3 N         138.7865  139.4255  164.5414 N.ar    1  UNL1       -0.2283
      4 C         138.1577  140.3726  163.5629 C.ar    1  UNL1        0.1345
      5 C         138.2496  141.8529  163.7870 C.ar    1  UNL1        0.0494
      6 C         138.9703  142.3861  164.9896 C.ar    1  UNL1        0.0567
      7 C         141.0405  142.5054  168.3734 C.1     1  UNL1       -0.0610
      8 C         140.3198  141.9722  167.1707 C.1     1  UNL1       -0.0593
      9 C         142.9925  142.2824  169.1734 C.3     1  UNL1        0.0429
     10 C         141.7612  143.0386  169.5760 C.3     1  UNL1        0.1418
     11 C         140.5299  143.7949  169.9785 C.3     1  UNL1        0.0429
     12 O         142.4819  143.5718  170.7786 O.3     1  UNL1       -0.3753
     13 H         141.9486  144.2683  171.1927 H       1  UNL1        0.2114
     14 N         137.4370  139.8394  162.3603 N.pl3   1  UNL1       -0.2821
     15 H         136.4682  139.6696  162.4022 H       1  UNL1        0.1551
     16 C         138.1924  139.5649  161.0938 C.ar    1  UNL1        0.1527
     17 C         137.6615  140.0606  159.7814 C.ar    1  UNL1        0.1340
     18 N         138.4169  139.7861  158.5149 N.ar    1  UNL1       -0.2290
     19 C         139.7032  139.0160  158.5608 C.ar    1  UNL1        0.1683
     20 C         140.2342  138.5203  159.8731 C.ar    1  UNL1        0.1299
     21 N         139.4788  138.7948  161.1397 N.ar    1  UNL1       -0.2251
     22 C         140.4587  138.7415  157.2942 C.1     1  UNL1        0.1214
     23 N         141.2140  138.4671  156.0277 N.1     1  UNL1       -0.1892
     24 N         139.0622  143.8665  165.2136 N.pl3   1  UNL1       -0.3301
     25 H         138.7647  144.2544  166.0682 H       1  UNL1        0.1469
     26 C         139.6074  144.7557  164.1357 C.3     1  UNL1        0.1185
     27 C         141.0243  144.5902  163.6720 C.3     1  UNL1        0.1503
     28 C         141.4104  144.9961  162.2805 C.3     1  UNL1        0.1003
     29 N         142.8272  144.8306  161.8169 N.3     1  UNL1       -0.2933
     30 C         143.8580  144.2591  162.7446 C.3     1  UNL1        0.1011
     31 C         143.4720  143.8531  164.1361 C.3     1  UNL1        0.1592
     32 O         142.0551  144.0187  164.5998 O.3     1  UNL1       -0.3516
     33 H         143.1577  145.7561  161.5437 H       1  UNL1        0.1234
@<TRIPOS>BOND
     1     9    10    1
     2    10    11    1
     3    10    12    1
     4    10     7    1
     5     7     8    3
     6     8     1    1
     7     1     2   ar
     8     2     3   ar
     9     3     4   ar
    10     4    14    1
    11    14    16    1
    12    16    17   ar
    13    17    18   ar
    14    18    19   ar
    15    19    22    1
    16    22    23    3
    17    19    20   ar
    18    20    21   ar
    19     4     5   ar
    20     5     6   ar
    21     6    24    1
    22    24    26    1
    23    27    26    1
    24    27    28    1
    25    28    29    1
    26    29    30    1
    27    30    31    1
    28    31    32    1
    29     6     1   ar
    30    32    27    1
    31    21    16   ar
    32    12    13    1
    33    14    15    1
    34    24    25    1
    35    29    33    1
@<TRIPOS>MOLECULE
*****
 33 35 0 0 0
SMALL
GASTEIGER

@<TRIPOS>ATOM
      1 C         142.3927  141.3626  166.4277 C.ar    1  UNL1        0.0740
      2 C         143.5326  142.1986  165.9260 C.ar    1  UNL1        0.1097
      3 N         144.3292  141.7455  164.7386 N.ar    1  UNL1       -0.2283
      4 C         143.9860  140.4563  164.0529 C.ar    1  UNL1        0.1345
      5 C         142.8461  139.6203  164.5546 C.ar    1  UNL1        0.0494
      6 C         142.0495  140.0735  165.7421 C.ar    1  UNL1        0.0567
      7 C         140.7994  142.2689  168.8026 C.1     1  UNL1       -0.0610
      8 C         141.5961  141.8158  167.6152 C.1     1  UNL1       -0.0593
      9 C         140.5672  144.1039  169.8414 C.3     1  UNL1        0.0429
     10 C         140.0028  142.7221  169.9901 C.3     1  UNL1        0.1418
     11 C         139.4383  141.3403  170.1387 C.3     1  UNL1        0.0429
     12 O         139.2061  143.1753  171.1775 O.3     1  UNL1       -0.3753
     13 H         138.5725  142.4837  171.4247 H       1  UNL1        0.2114
     14 N         144.7826  140.0032  162.8654 N.pl3   1  UNL1       -0.2821
     15 H         145.7657  140.0524  162.8844 H       1  UNL1        0.1551
     16 C         144.0815  139.4750  161.6491 C.ar    1  UNL1        0.1527
     17 C         143.8578  137.9999  161.4936 C.ar    1  UNL1        0.1340
     18 N         143.1566  137.4718  160.2773 N.ar    1  UNL1       -0.2290
     19 C         142.6791  138.4187  159.2165 C.ar    1  UNL1        0.1683
     20 C         142.9028  139.8938  159.3720 C.ar    1  UNL1        0.1299
     21 N         143.6040  140.4220  160.5883 N.ar    1  UNL1       -0.2251
     22 C         141.9779  137.8906  158.0002 C.1     1  UNL1        0.1214
     23 N         141.2767  137.3624  156.7839 N.1     1  UNL1       -0.1892
     24 N         140.9096  139.2374  166.2438 N.pl3   1  UNL1       -0.3301
     25 H         141.0865  138.4578  166.8185 H       1  UNL1        0.1469
     26 C         139.5002  139.5890  165.8699 C.3     1  UNL1        0.1185
     27 C         138.9759  139.2397  164.5086 C.3     1  UNL1        0.1503
     28 C         139.1005  137.8361  163.9944 C.3     1  UNL1        0.1003
     29 N         138.5763  137.4867  162.6331 N.3     1  UNL1       -0.2933
     30 C         137.9274  138.5409  161.7861 C.3     1  UNL1        0.1011
     31 C         137.8028  139.9445  162.3003 C.3     1  UNL1        0.1592
     32 O         138.3271  140.2939  163.6615 O.3     1  UNL1       -0.3516
     33 H         137.8853  136.7480  162.7644 H       1  UNL1        0.1234
@<TRIPOS>BOND
     1     9    10    1
     2    10    11    1
     3    10    12    1
     4    10     7    1
     5     7     8    3
     6     8     1    1
     7     1     2   ar
     8     2     3   ar
     9     3     4   ar
    10     4    14    1
    11    14    16    1
    12    16    17   ar
    13    17    18   ar
    14    18    19   ar
    15    19    22    1
    16    22    23    3
    17    19    20   ar
    18    20    21   ar
    19     4     5   ar
    20     5     6   ar
    21     6    24    1
    22    24    26    1
    23    27    26    1
    24    27    28    1
    25    28    29    1
    26    29    30    1
    27    30    31    1
    28    31    32    1
    29     6     1   ar
    30    32    27    1
    31    21    16   ar
    32    12    13    1
    33    14    15    1
    34    24    25    1
    35    29    33    1
@<TRIPOS>MOLECULE
*****
 33 35 0 0 0
SMALL
GASTEIGER

@<TRIPOS>ATOM
      1 C         139.5770  139.9117  166.5238 C.ar    1  UNL1        0.0740
      2 C         138.6859  138.7107  166.4076 C.ar    1  UNL1        0.1097
      3 N         138.4257  138.0971  165.0639 N.ar    1  UNL1       -0.2283
      4 C         139.0567  138.6843  163.8363 C.ar    1  UNL1        0.1345
      5 C         139.9478  139.8852  163.9525 C.ar    1  UNL1        0.0494
      6 C         140.2080  140.4989  165.2963 C.ar    1  UNL1        0.0567
      7 C         140.0974  141.1390  169.2114 C.1     1  UNL1       -0.0610
      8 C         139.8372  140.5253  167.8676 C.1     1  UNL1       -0.0593
      9 C         140.1517  143.1189  169.9711 C.3     1  UNL1        0.0429
     10 C         140.3576  141.7527  170.5551 C.3     1  UNL1        0.1418
     11 C         140.5635  140.3865  171.1392 C.3     1  UNL1        0.0429
     12 O         140.6178  142.3663  171.8989 O.3     1  UNL1       -0.3753
     13 H         140.6391  141.6699  172.5738 H       1  UNL1        0.2114
     14 N         138.7965  138.0707  162.4925 N.pl3   1  UNL1       -0.2821
     15 H         137.9667  137.5648  162.3347 H       1  UNL1        0.1551
     16 C         139.8004  138.2277  161.3892 C.ar    1  UNL1        0.1527
     17 C         139.4033  138.8877  160.1021 C.ar    1  UNL1        0.1340
     18 N         140.4072  139.0447  158.9988 N.ar    1  UNL1       -0.2290
     19 C         141.8084  138.5417  159.1825 C.ar    1  UNL1        0.1683
     20 C         142.2056  137.8817  160.4696 C.ar    1  UNL1        0.1299
     21 N         141.2016  137.7247  161.5730 N.ar    1  UNL1       -0.2251
     22 C         142.8124  138.6988  158.0791 C.1     1  UNL1        0.1214
     23 N         143.8163  138.8559  156.9758 N.1     1  UNL1       -0.1892
     24 N         141.0993  141.6999  165.4124 N.pl3   1  UNL1       -0.3301
     25 H         142.0758  141.5969  165.3417 H       1  UNL1        0.1469
     26 C         140.5026  143.0577  165.6363 C.3     1  UNL1        0.1185
     27 C         140.2855  143.9823  164.4752 C.3     1  UNL1        0.1503
     28 C         141.3786  144.9148  164.0444 C.3     1  UNL1        0.1003
     29 N         141.1615  145.8393  162.8834 N.3     1  UNL1       -0.2933
     30 C         139.8513  145.8313  162.1531 C.3     1  UNL1        0.1011
     31 C         138.7582  144.8988  162.5839 C.3     1  UNL1        0.1592
     32 O         138.9753  143.9743  163.7449 O.3     1  UNL1       -0.3516
     33 H         141.8832  145.6230  162.1958 H       1  UNL1        0.1234
@<TRIPOS>BOND
     1     9    10    1
     2    10    11    1
     3    10    12    1
     4    10     7    1
     5     7     8    3
     6     8     1    1
     7     1     2   ar
     8     2     3   ar
     9     3     4   ar
    10     4    14    1
    11    14    16    1
    12    16    17   ar
    13    17    18   ar
    14    18    19   ar
    15    19    22    1
    16    22    23    3
    17    19    20   ar
    18    20    21   ar
    19     4     5   ar
    20     5     6   ar
    21     6    24    1
    22    24    26    1
    23    27    26    1
    24    27    28    1
    25    28    29    1
    26    29    30    1
    27    30    31    1
    28    31    32    1
    29     6     1   ar
    30    32    27    1
    31    21    16   ar
    32    12    13    1
    33    14    15    1
    34    24    25    1
    35    29    33    1
@<TRIPOS>MOLECULE
*****
 33 35 0 0 0
SMALL
GASTEIGER

@<TRIPOS>ATOM
      1 C         139.7792  139.7040  166.4609 C.ar    1  UNL1        0.0740
      2 C         138.4339  139.7116  165.7976 C.ar    1  UNL1        0.1097
      3 N         138.2509  139.0475  164.4651 N.ar    1  UNL1       -0.2283
      4 C         139.4132  138.3758  163.7960 C.ar    1  UNL1        0.1345
      5 C         140.7585  138.3682  164.4594 C.ar    1  UNL1        0.0494
      6 C         140.9415  139.0323  165.7918 C.ar    1  UNL1        0.0567
      7 C         140.1451  141.0323  169.1259 C.1     1  UNL1       -0.0610
      8 C         139.9621  140.3681  167.7934 C.1     1  UNL1       -0.0593
      9 C         140.4687  140.3522  171.1090 C.3     1  UNL1        0.0429
     10 C         140.3281  141.6964  170.4583 C.3     1  UNL1        0.1418
     11 C         140.1874  143.0406  169.8077 C.3     1  UNL1        0.0429
     12 O         140.5110  142.3605  171.7908 O.3     1  UNL1       -0.3753
     13 H         140.6265  143.3151  171.6632 H       1  UNL1        0.2114
     14 N         139.2303  137.7117  162.4635 N.pl3   1  UNL1       -0.2821
     15 H         138.4952  137.0705  162.3299 H       1  UNL1        0.1551
     16 C         140.1672  138.0244  161.3347 C.ar    1  UNL1        0.1527
     17 C         139.6704  138.7719  160.1328 C.ar    1  UNL1        0.1340
     18 N         140.6073  139.0847  159.0040 N.ar    1  UNL1       -0.2290
     19 C         142.0411  138.6500  159.0770 C.ar    1  UNL1        0.1683
     20 C         142.5379  137.9025  160.2788 C.ar    1  UNL1        0.1299
     21 N         141.6010  137.5897  161.4077 N.ar    1  UNL1       -0.2251
     22 C         142.9780  138.9627  157.9480 C.1     1  UNL1        0.1214
     23 N         143.9149  139.2755  156.8192 N.1     1  UNL1       -0.1892
     24 N         142.2869  139.0247  166.4552 N.pl3   1  UNL1       -0.3301
     25 H         142.3635  139.2292  167.4152 H       1  UNL1        0.1469
     26 C         143.5153  138.7054  165.6560 C.3     1  UNL1        0.1185
     27 C         144.0537  139.7057  164.6762 C.3     1  UNL1        0.1503
     28 C         144.3968  139.2782  163.2800 C.3     1  UNL1        0.1003
     29 N         144.9351  140.2784  162.3003 N.3     1  UNL1       -0.2933
     30 C         145.1302  141.7061  162.7169 C.3     1  UNL1        0.1011
     31 C         144.7871  142.1336  164.1131 C.3     1  UNL1        0.1592
     32 O         144.2488  141.1334  165.0928 O.3     1  UNL1       -0.3516
     33 H         144.2939  140.2881  161.5071 H       1  UNL1        0.1234
@<TRIPOS>BOND
     1     9    10    1
     2    10    11    1
     3    10    12    1
     4    10     7    1
     5     7     8    3
     6     8     1    1
     7     1     2   ar
     8     2     3   ar
     9     3     4   ar
    10     4    14    1
    11    14    16    1
    12    16    17   ar
    13    17    18   ar
    14    18    19   ar
    15    19    22    1
    16    22    23    3
    17    19    20   ar
    18    20    21   ar
    19     4     5   ar
    20     5     6   ar
    21     6    24    1
    22    24    26    1
    23    27    26    1
    24    27    28    1
    25    28    29    1
    26    29    30    1
    27    30    31    1
    28    31    32    1
    29     6     1   ar
    30    32    27    1
    31    21    16   ar
    32    12    13    1
    33    14    15    1
    34    24    25    1
    35    29    33    1
@<TRIPOS>MOLECULE
*****
 33 35 0 0 0
SMALL
GASTEIGER

@<TRIPOS>ATOM
      1 C         139.3571  140.1001  166.3987 C.ar    1  UNL1        0.0740
      2 C         138.8940  138.6834  166.2304 C.ar    1  UNL1        0.1097
      3 N         138.5699  138.1577  164.8634 N.ar    1  UNL1       -0.2283
      4 C         138.7090  139.0487  163.6648 C.ar    1  UNL1        0.1345
      5 C         139.1721  140.4654  163.8331 C.ar    1  UNL1        0.0494
      6 C         139.4961  140.9911  165.2001 C.ar    1  UNL1        0.0567
      7 C         140.0052  141.1516  169.1326 C.1     1  UNL1       -0.0610
      8 C         139.6811  140.6259  167.7656 C.1     1  UNL1       -0.0593
      9 C         140.1455  143.0809  170.0033 C.3     1  UNL1        0.0429
     10 C         140.3292  141.6774  170.4996 C.3     1  UNL1        0.1418
     11 C         140.5130  140.2738  170.9958 C.3     1  UNL1        0.0429
     12 O         140.6533  142.2031  171.8665 O.3     1  UNL1       -0.3753
     13 H         140.6761  141.4678  172.4987 H       1  UNL1        0.2114
     14 N         138.3849  138.5229  162.2978 N.pl3   1  UNL1       -0.2821
     15 H         137.4814  138.1844  162.1020 H       1  UNL1        0.1551
     16 C         139.4374  138.5129  161.2291 C.ar    1  UNL1        0.1527
     17 C         140.8386  138.0919  161.5603 C.ar    1  UNL1        0.1340
     18 N         141.8911  138.0820  160.4916 N.ar    1  UNL1       -0.2290
     19 C         141.5425  138.4930  159.0918 C.ar    1  UNL1        0.1683
     20 C         140.1415  138.9140  158.7606 C.ar    1  UNL1        0.1299
     21 N         139.0889  138.9240  159.8293 N.ar    1  UNL1       -0.2251
     22 C         142.5951  138.4830  158.0231 C.1     1  UNL1        0.1214
     23 N         143.6476  138.4731  156.9544 N.1     1  UNL1       -0.1892
     24 N         139.9592  142.4079  165.3683 N.pl3   1  UNL1       -0.3301
     25 H         140.1345  142.7648  166.2690 H       1  UNL1        0.1469
     26 C         140.1553  143.2809  164.1644 C.3     1  UNL1        0.1185
     27 C         141.5378  143.5410  163.6437 C.3     1  UNL1        0.1503
     28 C         141.8940  144.8949  163.1050 C.3     1  UNL1        0.1003
     29 N         143.2764  145.1550  162.5843 N.3     1  UNL1       -0.2933
     30 C         144.3027  144.0612  162.6023 C.3     1  UNL1        0.1011
     31 C         143.9465  142.7073  163.1410 C.3     1  UNL1        0.1592
     32 O         142.5641  142.4472  163.6617 O.3     1  UNL1       -0.3516
     33 H         143.6576  145.9255  163.1332 H       1  UNL1        0.1234
@<TRIPOS>BOND
     1     9    10    1
     2    10    11    1
     3    10    12    1
     4    10     7    1
     5     7     8    3
     6     8     1    1
     7     1     2   ar
     8     2     3   ar
     9     3     4   ar
    10     4    14    1
    11    14    16    1
    12    16    17   ar
    13    17    18   ar
    14    18    19   ar
    15    19    22    1
    16    22    23    3
    17    19    20   ar
    18    20    21   ar
    19     4     5   ar
    20     5     6   ar
    21     6    24    1
    22    24    26    1
    23    27    26    1
    24    27    28    1
    25    28    29    1
    26    29    30    1
    27    30    31    1
    28    31    32    1
    29     6     1   ar
    30    32    27    1
    31    21    16   ar
    32    12    13    1
    33    14    15    1
    34    24    25    1
    35    29    33    1
@<TRIPOS>MOLECULE
*****
 33 35 0 0 0
SMALL
GASTEIGER

@<TRIPOS>ATOM
      1 C         140.8673  142.8546  166.0603 C.ar    1  UNL1        0.0740
      2 C         139.6863  143.6644  165.6137 C.ar    1  UNL1        0.1097
      3 N         139.7986  144.5543  164.4114 N.ar    1  UNL1       -0.2283
      4 C         141.0918  144.6343  163.6557 C.ar    1  UNL1        0.1345
      5 C         142.2728  143.8245  164.1023 C.ar    1  UNL1        0.0494
      6 C         142.1605  142.9346  165.3046 C.ar    1  UNL1        0.0567
      7 C         140.6428  141.0749  168.4649 C.1     1  UNL1       -0.0610
      8 C         140.7550  141.9647  167.2626 C.1     1  UNL1       -0.0593
      9 C         141.8921  139.6252  169.3800 C.3     1  UNL1        0.0429
     10 C         140.5305  140.1850  169.6672 C.3     1  UNL1        0.1418
     11 C         139.1689  140.7449  169.9544 C.3     1  UNL1        0.0429
     12 O         140.4182  139.2951  170.8695 O.3     1  UNL1       -0.3753
     13 H         139.6441  139.5551  171.3930 H       1  UNL1        0.2114
     14 N         141.2041  145.5242  162.4534 N.pl3   1  UNL1       -0.2821
     15 H         141.5386  146.4449  162.5519 H       1  UNL1        0.1551
     16 C         140.8067  145.0113  161.1010 C.ar    1  UNL1        0.1527
     17 C         139.6290  144.0925  160.9636 C.ar    1  UNL1        0.1340
     18 N         139.2316  143.5797  159.6112 N.ar    1  UNL1       -0.2290
     19 C         140.0120  143.9855  158.3961 C.ar    1  UNL1        0.1683
     20 C         141.1897  144.9042  158.5335 C.ar    1  UNL1        0.1299
     21 N         141.5871  145.4172  159.8859 N.ar    1  UNL1       -0.2251
     22 C         139.6146  143.4726  157.0437 C.1     1  UNL1        0.1214
     23 N         139.2172  142.9597  155.6913 N.1     1  UNL1       -0.1892
     24 N         143.3415  142.1248  165.7512 N.pl3   1  UNL1       -0.3301
     25 H         143.4470  141.8910  166.7017 H       1  UNL1        0.1469
     26 C         144.3618  141.6712  164.7496 C.3     1  UNL1        0.1185
     27 C         144.0470  140.5376  163.8190 C.3     1  UNL1        0.1503
     28 C         144.7326  140.4474  162.4879 C.3     1  UNL1        0.1003
     29 N         144.4179  139.3139  161.5574 N.3     1  UNL1       -0.2933
     30 C         143.4175  138.2705  161.9580 C.3     1  UNL1        0.1011
     31 C         142.7319  138.3606  163.2890 C.3     1  UNL1        0.1592
     32 O         143.0466  139.4942  164.2196 O.3     1  UNL1       -0.3516
     33 H         145.2961  138.8267  161.3791 H       1  UNL1        0.1234
@<TRIPOS>BOND
     1     9    10    1
     2    10    11    1
     3    10    12    1
     4    10     7    1
     5     7     8    3
     6     8     1    1
     7     1     2   ar
     8     2     3   ar
     9     3     4   ar
    10     4    14    1
    11    14    16    1
    12    16    17   ar
    13    17    18   ar
    14    18    19   ar
    15    19    22    1
    16    22    23    3
    17    19    20   ar
    18    20    21   ar
    19     4     5   ar
    20     5     6   ar
    21     6    24    1
    22    24    26    1
    23    27    26    1
    24    27    28    1
    25    28    29    1
    26    29    30    1
    27    30    31    1
    28    31    32    1
    29     6     1   ar
    30    32    27    1
    31    21    16   ar
    32    12    13    1
    33    14    15    1
    34    24    25    1
    35    29    33    1
@<TRIPOS>MOLECULE
*****
 33 35 0 0 0
SMALL
GASTEIGER

@<TRIPOS>ATOM
      1 C         141.5469  139.5726  166.5468 C.ar    1  UNL1        0.0740
      2 C         142.9161  139.0450  166.2357 C.ar    1  UNL1        0.1097
      3 N         143.1855  138.3922  164.9124 N.ar    1  UNL1       -0.2283
      4 C         142.0858  138.2670  163.9001 C.ar    1  UNL1        0.1345
      5 C         140.7165  138.7946  164.2112 C.ar    1  UNL1        0.0494
      6 C         140.4471  139.4474  165.5345 C.ar    1  UNL1        0.0567
      7 C         141.0080  140.8782  169.1935 C.1     1  UNL1       -0.0610
      8 C         141.2774  140.2254  167.8701 C.1     1  UNL1       -0.0593
      9 C         139.2629  141.4057  170.2782 C.3     1  UNL1        0.0429
     10 C         140.7385  141.5310  170.5168 C.3     1  UNL1        0.1418
     11 C         142.2141  141.6564  170.7554 C.3     1  UNL1        0.0429
     12 O         140.4691  142.1839  171.8402 O.3     1  UNL1       -0.3753
     13 H         141.2971  142.2542  172.3405 H       1  UNL1        0.2114
     14 N         142.3552  137.6142  162.5768 N.pl3   1  UNL1       -0.2821
     15 H         142.2160  136.6456  162.4683 H       1  UNL1        0.1551
     16 C         142.8367  138.4370  161.4188 C.ar    1  UNL1        0.1527
     17 C         142.8870  137.8397  160.0437 C.ar    1  UNL1        0.1340
     18 N         143.3685  138.6625  158.8857 N.ar    1  UNL1       -0.2290
     19 C         143.7997  140.0827  159.1027 C.ar    1  UNL1        0.1683
     20 C         143.7494  140.6801  160.4776 C.ar    1  UNL1        0.1299
     21 N         143.2679  139.8572  161.6357 N.ar    1  UNL1       -0.2251
     22 C         144.2812  140.9056  157.9446 C.1     1  UNL1        0.1214
     23 N         144.7627  141.7285  156.7865 N.1     1  UNL1       -0.1892
     24 N         139.0778  139.9750  165.8455 N.pl3   1  UNL1       -0.3301
     25 H         138.8033  140.1107  166.7812 H       1  UNL1        0.1469
     26 C         138.1266  140.2958  164.7310 C.3     1  UNL1        0.1185
     27 C         138.0866  141.6800  164.1542 C.3     1  UNL1        0.1503
     28 C         137.5519  141.9006  162.7702 C.3     1  UNL1        0.1003
     29 N         137.5119  143.2846  162.1934 N.3     1  UNL1       -0.2933
     30 C         138.0066  144.4481  163.0006 C.3     1  UNL1        0.1011
     31 C         138.5413  144.2275  164.3846 C.3     1  UNL1        0.1592
     32 O         138.5813  142.8434  164.9614 O.3     1  UNL1       -0.3516
     33 H         136.5376  143.4794  161.9626 H       1  UNL1        0.1234
@<TRIPOS>BOND
     1     9    10    1
     2    10    11    1
     3    10    12    1
     4    10     7    1
     5     7     8    3
     6     8     1    1
     7     1     2   ar
     8     2     3   ar
     9     3     4   ar
    10     4    14    1
    11    14    16    1
    12    16    17   ar
    13    17    18   ar
    14    18    19   ar
    15    19    22    1
    16    22    23    3
    17    19    20   ar
    18    20    21   ar
    19     4     5   ar
    20     5     6   ar
    21     6    24    1
    22    24    26    1
    23    27    26    1
    24    27    28    1
    25    28    29    1
    26    29    30    1
    27    30    31    1
    28    31    32    1
    29     6     1   ar
    30    32    27    1
    31    21    16   ar
    32    12    13    1
    33    14    15    1
    34    24    25    1
    35    29    33    1
@<TRIPOS>MOLECULE
*****
 33 35 0 0 0
SMALL
GASTEIGER

@<TRIPOS>ATOM
      1 C         140.3884  139.6843  166.8572 C.ar    1  UNL1        0.0740
      2 C         138.9215  139.4715  166.6274 C.ar    1  UNL1        0.1097
      3 N         138.4502  138.7753  165.3851 N.ar    1  UNL1       -0.2283
      4 C         139.4457  138.2919  164.3727 C.ar    1  UNL1        0.1345
      5 C         140.9126  138.5047  164.6025 C.ar    1  UNL1        0.0494
      6 C         141.3840  139.2009  165.8447 C.ar    1  UNL1        0.0567
      7 C         141.3311  141.0766  169.3417 C.1     1  UNL1       -0.0610
      8 C         140.8597  140.3804  168.0994 C.1     1  UNL1       -0.0593
      9 C         140.3825  142.1017  170.9384 C.3     1  UNL1        0.0429
     10 C         141.8024  141.7728  170.5839 C.3     1  UNL1        0.1418
     11 C         143.2223  141.4439  170.2295 C.3     1  UNL1        0.0429
     12 O         142.2737  142.4690  171.8262 O.3     1  UNL1       -0.3753
     13 H         143.2156  142.2824  171.9638 H       1  UNL1        0.2114
     14 N         138.9744  137.5957  163.1304 N.pl3   1  UNL1       -0.2821
     15 H         138.8227  136.6230  163.1387 H       1  UNL1        0.1551
     16 C         138.7342  138.3815  161.8756 C.ar    1  UNL1        0.1527
     17 C         139.5238  138.0768  160.6371 C.ar    1  UNL1        0.1340
     18 N         139.2836  138.8626  159.3822 N.ar    1  UNL1       -0.2290
     19 C         138.2539  139.9532  159.3657 C.ar    1  UNL1        0.1683
     20 C         137.4643  140.2580  160.6041 C.ar    1  UNL1        0.1299
     21 N         137.7045  139.4721  161.8591 N.ar    1  UNL1       -0.2251
     22 C         138.0137  140.7390  158.1108 C.1     1  UNL1        0.1214
     23 N         137.7736  141.5248  156.8559 N.1     1  UNL1       -0.1892
     24 N         142.8510  139.4137  166.0745 N.pl3   1  UNL1       -0.3301
     25 H         143.1720  139.7223  166.9525 H       1  UNL1        0.1469
     26 C         143.8287  139.1563  164.9665 C.3     1  UNL1        0.1185
     27 C         144.2128  140.2654  164.0324 C.3     1  UNL1        0.1503
     28 C         145.6240  140.7732  164.0112 C.3     1  UNL1        0.1003
     29 N         146.0081  141.8822  163.0772 N.3     1  UNL1       -0.2933
     30 C         144.9810  142.4834  162.1643 C.3     1  UNL1        0.1011
     31 C         143.5697  141.9755  162.1854 C.3     1  UNL1        0.1592
     32 O         143.1856  140.8665  163.1195 O.3     1  UNL1       -0.3516
     33 H         146.7549  141.5217  162.4833 H       1  UNL1        0.1234
@<TRIPOS>BOND
     1     9    10    1
     2    10    11    1
     3    10    12    1
     4    10     7    1
     5     7     8    3
     6     8     1    1
     7     1     2   ar
     8     2     3   ar
     9     3     4   ar
    10     4    14    1
    11    14    16    1
    12    16    17   ar
    13    17    18   ar
    14    18    19   ar
    15    19    22    1
    16    22    23    3
    17    19    20   ar
    18    20    21   ar
    19     4     5   ar
    20     5     6   ar
    21     6    24    1
    22    24    26    1
    23    27    26    1
    24    27    28    1
    25    28    29    1
    26    29    30    1
    27    30    31    1
    28    31    32    1
    29     6     1   ar
    30    32    27    1
    31    21    16   ar
    32    12    13    1
    33    14    15    1
    34    24    25    1
    35    29    33    1
@<TRIPOS>MOLECULE
*****
 33 35 0 0 0
SMALL
GASTEIGER

@<TRIPOS>ATOM
      1 C         140.4175  140.6693  166.6445 C.ar    1  UNL1        0.0740
      2 C         139.2806  139.7401  166.9512 C.ar    1  UNL1        0.1097
      3 N         138.6728  138.9122  165.8579 N.ar    1  UNL1       -0.2283
      4 C         139.2019  139.0135  164.4580 C.ar    1  UNL1        0.1345
      5 C         140.3387  139.9426  164.1514 C.ar    1  UNL1        0.0494
      6 C         140.9465  140.7705  165.2446 C.ar    1  UNL1        0.0567
      7 C         141.6331  142.3250  168.8310 C.1     1  UNL1       -0.0610
      8 C         141.0253  141.4971  167.7378 C.1     1  UNL1       -0.0593
      9 C         143.5270  142.3938  169.7840 C.3     1  UNL1        0.0429
     10 C         142.2409  143.1529  169.9242 C.3     1  UNL1        0.1418
     11 C         140.9547  143.9120  170.0644 C.3     1  UNL1        0.0429
     12 O         142.8487  143.9808  171.0175 O.3     1  UNL1       -0.3753
     13 H         142.2595  144.7224  171.2271 H       1  UNL1        0.2114
     14 N         138.5941  138.1856  163.3648 N.pl3   1  UNL1       -0.2821
     15 H         138.1389  137.3402  163.5826 H       1  UNL1        0.1551
     16 C         138.6797  138.6457  161.9397 C.ar    1  UNL1        0.1527
     17 C         139.7241  138.0726  161.0280 C.ar    1  UNL1        0.1340
     18 N         139.8097  138.5327  159.6030 N.ar    1  UNL1       -0.2290
     19 C         138.8511  139.5658  159.0894 C.ar    1  UNL1        0.1683
     20 C         137.8068  140.1388  160.0010 C.ar    1  UNL1        0.1299
     21 N         137.7211  139.6788  161.4262 N.ar    1  UNL1       -0.2251
     22 C         138.9368  140.0259  157.6643 C.1     1  UNL1        0.1214
     23 N         139.0224  140.4860  156.2392 N.1     1  UNL1       -0.1892
     24 N         142.0835  141.6997  164.9379 N.pl3   1  UNL1       -0.3301
     25 H         142.7523  141.9047  165.6306 H       1  UNL1        0.1469
     26 C         142.2014  142.3166  163.5757 C.3     1  UNL1        0.1185
     27 C         141.3046  143.4548  163.1877 C.3     1  UNL1        0.1503
     28 C         141.8538  144.8483  163.1070 C.3     1  UNL1        0.1003
     29 N         140.9571  145.9865  162.7189 N.3     1  UNL1       -0.2933
     30 C         139.5114  145.7311  162.4116 C.3     1  UNL1        0.1011
     31 C         138.9622  144.3376  162.4923 C.3     1  UNL1        0.1592
     32 O         139.8589  143.1994  162.8804 O.3     1  UNL1       -0.3516
     33 H         141.3646  146.4116  161.8861 H       1  UNL1        0.1234
@<TRIPOS>BOND
     1     9    10    1
     2    10    11    1
     3    10    12    1
     4    10     7    1
     5     7     8    3
     6     8     1    1
     7     1     2   ar
     8     2     3   ar
     9     3     4   ar
    10     4    14    1
    11    14    16    1
    12    16    17   ar
    13    17    18   ar
    14    18    19   ar
    15    19    22    1
    16    22    23    3
    17    19    20   ar
    18    20    21   ar
    19     4     5   ar
    20     5     6   ar
    21     6    24    1
    22    24    26    1
    23    27    26    1
    24    27    28    1
    25    28    29    1
    26    29    30    1
    27    30    31    1
    28    31    32    1
    29     6     1   ar
    30    32    27    1
    31    21    16   ar
    32    12    13    1
    33    14    15    1
    34    24    25    1
    35    29    33    1
