@<TRIPOS>MOLECULE
*****
 34 38 0 0 0
SMALL
GASTEIGER

@<TRIPOS>ATOM
      1 N         142.8788  138.3973  165.7480 N.pl3   1  UNL1       -0.3059
      2 H         143.7016  137.8574  165.7206 H       1  UNL1        0.1495
      3 C         142.6151  139.3038  166.9136 C.ar    1  UNL1        0.1978
      4 N         142.9195  139.0029  168.3512 N.ar    1  UNL1       -0.2138
      5 C         142.4933  140.1836  169.1724 C.ar    1  UNL1        0.0999
      6 C         142.5488  140.4533  170.6469 C.ar    1  UNL1        0.0207
      7 C         142.0366  141.7538  171.1912 C.ar    1  UNL1        0.0016
      8 C         141.4688  142.7845  170.2611 C.ar    1  UNL1        0.0016
      9 C         141.4132  142.5148  168.7866 C.ar    1  UNL1        0.0188
     10 C         141.9254  141.2143  168.2423 C.ar    1  UNL1        0.0798
     11 N         142.0008  140.6706  166.8463 N.ar    1  UNL1       -0.2998
     12 C         141.5422  141.3708  165.6015 C.3     1  UNL1        0.1087
     13 C         142.2680  142.5904  165.1163 C.3     1  UNL1        0.0227
     14 C         143.7398  142.7366  165.3667 C.3     1  UNL1        0.0019
     15 C         144.4658  143.9562  164.8816 C.3     1  UNL1        0.0001
     16 C         143.7199  145.0299  164.1460 C.3     1  UNL1        0.0000
     17 C         142.2482  144.8837  163.8955 C.3     1  UNL1        0.0001
     18 C         141.5223  143.6641  164.3807 C.3     1  UNL1        0.0019
     19 N         139.9090  138.1452  162.3766 N.3     1  UNL1       -0.2723
     20 C         139.4915  137.7872  163.7721 C.3     1  UNL1        0.0738
     21 C         140.4815  137.8713  164.8960 C.3     1  UNL1        0.0369
     22 C         141.8889  138.3133  164.6243 C.3     1  UNL1        0.0745
     23 C         142.3063  138.6713  163.2287 C.3     1  UNL1        0.0369
     24 C         141.3164  138.5873  162.1049 C.3     1  UNL1        0.0738
     25 C         138.9190  138.0612  161.2527 C.3     1  UNL1        0.0768
     26 C         137.7057  138.9431  161.2546 C.3     1  UNL1        0.0437
     27 C         138.0990  143.3089  162.2718 C.ar    1  UNL1        0.1387
     28 C         138.5023  142.8160  160.9138 C.ar    1  UNL1        0.0366
     29 C         138.3712  141.3607  160.5747 C.ar    1  UNL1       -0.0011
     30 C         137.8368  140.3984  161.5937 C.ar    1  UNL1       -0.0206
     31 C         137.4334  140.8913  162.9517 C.ar    1  UNL1       -0.0011
     32 C         137.5645  142.3467  163.2908 C.ar    1  UNL1        0.0366
     33 C         139.3141  145.5867  161.9797 C.3     1  UNL1        0.2525
     34 O         138.2300  144.7642  162.6109 O.3     1  UNL1       -0.4714
@<TRIPOS>BOND
     1    33    34    1
     2    34    27    1
     3    27    28   ar
     4    28    29   ar
     5    29    30   ar
     6    30    26    1
     7    26    25    1
     8    25    19    1
     9    19    20    1
    10    20    21    1
    11    21    22    1
    12    22     1    1
    13     1     3    1
    14     3     4   ar
    15     4     5   ar
    16     5     6   ar
    17     6     7   ar
    18     7     8   ar
    19     8     9   ar
    20     9    10   ar
    21    10    11   ar
    22    11    12    1
    23    12    13    1
    24    13    14    1
    25    14    15    1
    26    15    16    1
    27    16    17    1
    28    17    18    1
    29    22    23    1
    30    23    24    1
    31    30    31   ar
    32    31    32   ar
    33    32    27   ar
    34    24    19    1
    35    11     3   ar
    36    18    13    1
    37    10     5   ar
    38     1     2    1
@<TRIPOS>MOLECULE
*****
 34 38 0 0 0
SMALL
GASTEIGER

@<TRIPOS>ATOM
      1 N         145.1012  140.1709  163.2925 N.pl3   1  UNL1       -0.3059
      2 H         146.0764  140.2911  163.3532 H       1  UNL1        0.1495
      3 C         144.4556  139.9400  161.9583 C.ar    1  UNL1        0.1978
      4 N         144.0195  138.6147  161.4074 N.ar    1  UNL1       -0.2138
      5 C         143.4272  138.8495  160.0495 C.ar    1  UNL1        0.0999
      6 C         142.8331  137.9143  159.0383 C.ar    1  UNL1        0.0207
      7 C         142.3090  138.4495  157.7387 C.ar    1  UNL1        0.0016
      8 C         142.3791  139.9199  157.4504 C.ar    1  UNL1        0.0016
      9 C         142.9731  140.8550  158.4615 C.ar    1  UNL1        0.0188
     10 C         143.4972  140.3198  159.7611 C.ar    1  UNL1        0.0798
     11 N         144.1328  140.9938  160.9408 N.ar    1  UNL1       -0.2998
     12 C         144.3989  142.4635  161.0788 C.3     1  UNL1        0.1087
     13 C         143.5670  143.2920  162.0122 C.3     1  UNL1        0.0227
     14 C         142.0974  143.0226  162.1468 C.3     1  UNL1        0.0019
     15 C         141.2654  143.8511  163.0803 C.3     1  UNL1        0.0001
     16 C         141.9029  144.9490  163.8792 C.3     1  UNL1        0.0000
     17 C         143.3724  145.2183  163.7447 C.3     1  UNL1        0.0001
     18 C         144.2044  144.3899  162.8112 C.3     1  UNL1        0.0019
     19 N         142.5802  140.3146  167.0172 N.3     1  UNL1       -0.2723
     20 C         142.9658  138.9923  166.4232 C.3     1  UNL1        0.0738
     21 C         143.8061  138.9444  165.1815 C.3     1  UNL1        0.0369
     22 C         144.2609  140.2188  164.5340 C.3     1  UNL1        0.0745
     23 C         143.8752  141.5411  165.1282 C.3     1  UNL1        0.0369
     24 C         143.0349  141.5889  166.3698 C.3     1  UNL1        0.0738
     25 C         141.7399  140.3625  168.2589 C.3     1  UNL1        0.0768
     26 C         140.2456  140.4356  168.1508 C.3     1  UNL1        0.0437
     27 C         138.2693  140.2346  164.1130 C.ar    1  UNL1        0.1387
     28 C         138.7676  141.5477  164.6396 C.ar    1  UNL1        0.0366
     29 C         139.4264  141.6148  165.9855 C.ar    1  UNL1       -0.0011
     30 C         139.5868  140.3686  166.8049 C.ar    1  UNL1       -0.0206
     31 C         139.0886  139.0554  166.2783 C.ar    1  UNL1       -0.0011
     32 C         138.4298  138.9884  164.9323 C.ar    1  UNL1        0.0366
     33 C         137.7646  138.9413  161.9169 C.3     1  UNL1        0.2525
     34 O         137.6106  140.1675  162.7671 O.3     1  UNL1       -0.4714
@<TRIPOS>BOND
     1    33    34    1
     2    34    27    1
     3    27    28   ar
     4    28    29   ar
     5    29    30   ar
     6    30    26    1
     7    26    25    1
     8    25    19    1
     9    19    20    1
    10    20    21    1
    11    21    22    1
    12    22     1    1
    13     1     3    1
    14     3     4   ar
    15     4     5   ar
    16     5     6   ar
    17     6     7   ar
    18     7     8   ar
    19     8     9   ar
    20     9    10   ar
    21    10    11   ar
    22    11    12    1
    23    12    13    1
    24    13    14    1
    25    14    15    1
    26    15    16    1
    27    16    17    1
    28    17    18    1
    29    22    23    1
    30    23    24    1
    31    30    31   ar
    32    31    32   ar
    33    32    27   ar
    34    24    19    1
    35    11     3   ar
    36    18    13    1
    37    10     5   ar
    38     1     2    1
@<TRIPOS>MOLECULE
*****
 34 38 0 0 0
SMALL
GASTEIGER

@<TRIPOS>ATOM
      1 N         139.0032  139.1000  165.3112 N.pl3   1  UNL1       -0.3059
      2 H         138.0856  138.7568  165.2142 H       1  UNL1        0.1495
      3 C         139.3629  139.9570  166.4885 C.ar    1  UNL1        0.1978
      4 N         139.3080  139.5438  167.9294 N.ar    1  UNL1       -0.2138
      5 C         139.7518  140.7091  168.7631 C.ar    1  UNL1        0.0999
      6 C         139.8987  140.8846  170.2455 C.ar    1  UNL1        0.0207
      7 C         140.3748  142.1935  170.8022 C.ar    1  UNL1        0.0016
      8 C         140.7041  143.3270  169.8765 C.ar    1  UNL1        0.0016
      9 C         140.5572  143.1515  168.3941 C.ar    1  UNL1        0.0188
     10 C         140.0811  141.8426  167.8374 C.ar    1  UNL1        0.0798
     11 N         139.8407  141.3777  166.4316 N.ar    1  UNL1       -0.2998
     12 C         140.0427  142.1909  165.1875 C.3     1  UNL1        0.1087
     13 C         141.3444  142.8997  164.9578 C.3     1  UNL1        0.0227
     14 C         142.6305  142.2693  165.4037 C.3     1  UNL1        0.0019
     15 C         143.9324  142.9781  165.1740 C.3     1  UNL1        0.0001
     16 C         143.9482  144.3172  164.4983 C.3     1  UNL1        0.0000
     17 C         142.6622  144.9475  164.0524 C.3     1  UNL1        0.0001
     18 C         141.3604  144.2388  164.2821 C.3     1  UNL1        0.0019
     19 N         142.1185  138.0972  162.2225 N.3     1  UNL1       -0.2723
     20 C         142.5309  138.4036  163.6318 C.3     1  UNL1        0.0738
     21 C         141.4925  138.7379  164.6614 C.3     1  UNL1        0.0369
     22 C         140.0416  138.7657  164.2817 C.3     1  UNL1        0.0745
     23 C         139.6292  138.4593  162.8723 C.3     1  UNL1        0.0369
     24 C         140.6676  138.1251  161.8428 C.3     1  UNL1        0.0738
     25 C         143.1569  137.7630  161.1929 C.3     1  UNL1        0.0768
     26 C         144.1346  138.8093  160.7467 C.3     1  UNL1        0.0437
     27 C         142.8128  143.0901  160.3253 C.ar    1  UNL1        0.1387
     28 C         142.2200  142.0318  159.4430 C.ar    1  UNL1        0.0366
     29 C         142.6606  140.6049  159.5834 C.ar    1  UNL1       -0.0011
     30 C         143.6940  140.2362  160.6062 C.ar    1  UNL1       -0.0206
     31 C         144.2869  141.2945  161.4886 C.ar    1  UNL1       -0.0011
     32 C         143.8462  142.7215  161.3481 C.ar    1  UNL1        0.0366
     33 C         140.9833  144.9162  160.5870 C.3     1  UNL1        0.2525
     34 O         142.3722  144.5170  160.1849 O.3     1  UNL1       -0.4714
@<TRIPOS>BOND
     1    33    34    1
     2    34    27    1
     3    27    28   ar
     4    28    29   ar
     5    29    30   ar
     6    30    26    1
     7    26    25    1
     8    25    19    1
     9    19    20    1
    10    20    21    1
    11    21    22    1
    12    22     1    1
    13     1     3    1
    14     3     4   ar
    15     4     5   ar
    16     5     6   ar
    17     6     7   ar
    18     7     8   ar
    19     8     9   ar
    20     9    10   ar
    21    10    11   ar
    22    11    12    1
    23    12    13    1
    24    13    14    1
    25    14    15    1
    26    15    16    1
    27    16    17    1
    28    17    18    1
    29    22    23    1
    30    23    24    1
    31    30    31   ar
    32    31    32   ar
    33    32    27   ar
    34    24    19    1
    35    11     3   ar
    36    18    13    1
    37    10     5   ar
    38     1     2    1
@<TRIPOS>MOLECULE
*****
 34 38 0 0 0
SMALL
GASTEIGER

@<TRIPOS>ATOM
      1 N         138.6831  139.3953  165.5194 N.pl3   1  UNL1       -0.3059
      2 H         137.7025  139.3498  165.4449 H       1  UNL1        0.1495
      3 C         139.3171  139.8786  166.7901 C.ar    1  UNL1        0.1978
      4 N         138.8901  139.5165  168.1817 N.ar    1  UNL1       -0.2138
      5 C         139.7985  140.2228  169.1439 C.ar    1  UNL1        0.0999
      6 C         139.8533  140.2420  170.6427 C.ar    1  UNL1        0.0207
      7 C         140.8966  141.0597  171.3447 C.ar    1  UNL1        0.0016
      8 C         141.8850  141.8584  170.5478 C.ar    1  UNL1        0.0016
      9 C         141.8302  141.8393  169.0489 C.ar    1  UNL1        0.0188
     10 C         140.7870  141.0215  168.3470 C.ar    1  UNL1        0.0798
     11 N         140.4894  140.8087  166.8923 N.ar    1  UNL1       -0.2998
     12 C         141.2336  141.4189  165.7417 C.3     1  UNL1        0.1087
     13 C         140.6715  142.6170  165.0357 C.3     1  UNL1        0.0227
     14 C         139.6529  143.4807  165.7189 C.3     1  UNL1        0.0019
     15 C         139.0907  144.6788  165.0129 C.3     1  UNL1        0.0001
     16 C         139.5470  145.0132  163.6236 C.3     1  UNL1        0.0000
     17 C         140.5655  144.1496  162.9405 C.3     1  UNL1        0.0001
     18 C         141.1278  142.9515  163.6465 C.3     1  UNL1        0.0019
     19 N         141.2633  138.1539  162.0479 N.3     1  UNL1       -0.2723
     20 C         141.3346  137.4000  163.3427 C.3     1  UNL1        0.0738
     21 C         140.4746  137.8138  164.4999 C.3     1  UNL1        0.0369
     22 C         139.5432  138.9815  164.3623 C.3     1  UNL1        0.0745
     23 C         139.4719  139.7354  163.0674 C.3     1  UNL1        0.0369
     24 C         140.3319  139.3216  161.9103 C.3     1  UNL1        0.0738
     25 C         142.1234  137.7401  160.8907 C.3     1  UNL1        0.0768
     26 C         143.5393  138.2263  160.7970 C.3     1  UNL1        0.0437
     27 C         144.9292  141.6220  163.4022 C.ar    1  UNL1        0.1387
     28 C         144.9117  140.2221  163.9407 C.ar    1  UNL1        0.0366
     29 C         144.4484  139.0902  163.0724 C.ar    1  UNL1       -0.0011
     30 C         144.0026  139.3582  161.6654 C.ar    1  UNL1       -0.0206
     31 C         144.0201  140.7581  161.1269 C.ar    1  UNL1       -0.0011
     32 C         144.4834  141.8900  161.9953 C.ar    1  UNL1        0.0366
     33 C         144.4704  143.3341  165.3018 C.3     1  UNL1        0.2525
     34 O         145.3925  142.7539  164.2706 O.3     1  UNL1       -0.4714
@<TRIPOS>BOND
     1    33    34    1
     2    34    27    1
     3    27    28   ar
     4    28    29   ar
     5    29    30   ar
     6    30    26    1
     7    26    25    1
     8    25    19    1
     9    19    20    1
    10    20    21    1
    11    21    22    1
    12    22     1    1
    13     1     3    1
    14     3     4   ar
    15     4     5   ar
    16     5     6   ar
    17     6     7   ar
    18     7     8   ar
    19     8     9   ar
    20     9    10   ar
    21    10    11   ar
    22    11    12    1
    23    12    13    1
    24    13    14    1
    25    14    15    1
    26    15    16    1
    27    16    17    1
    28    17    18    1
    29    22    23    1
    30    23    24    1
    31    30    31   ar
    32    31    32   ar
    33    32    27   ar
    34    24    19    1
    35    11     3   ar
    36    18    13    1
    37    10     5   ar
    38     1     2    1
@<TRIPOS>MOLECULE
*****
 34 38 0 0 0
SMALL
GASTEIGER

@<TRIPOS>ATOM
      1 N         144.3439  143.3296  166.3679 N.pl3   1  UNL1       -0.3059
      2 H         144.9553  143.9545  166.8205 H       1  UNL1        0.1495
      3 C         143.3123  142.5831  167.1608 C.ar    1  UNL1        0.1978
      4 N         143.3500  142.3292  168.6386 N.ar    1  UNL1       -0.2138
      5 C         142.1229  141.5486  169.0063 C.ar    1  UNL1        0.0999
      6 C         141.6276  141.0164  170.3183 C.ar    1  UNL1        0.0207
      7 C         140.3363  140.2557  170.3796 C.ar    1  UNL1        0.0016
      8 C         139.5403  140.0273  169.1289 C.ar    1  UNL1        0.0016
      9 C         140.0356  140.5595  167.8169 C.ar    1  UNL1        0.0188
     10 C         141.3269  141.3202  167.7556 C.ar    1  UNL1        0.0798
     11 N         142.0620  141.9596  166.6151 N.ar    1  UNL1       -0.2998
     12 C         141.6237  141.9730  165.1806 C.3     1  UNL1        0.1087
     13 C         140.3241  142.6175  164.7994 C.3     1  UNL1        0.0227
     14 C         140.2020  144.1126  164.7924 C.3     1  UNL1        0.0019
     15 C         138.9024  144.7573  164.4113 C.3     1  UNL1        0.0001
     16 C         137.7247  143.9069  164.0370 C.3     1  UNL1        0.0000
     17 C         137.8468  142.4119  164.0440 C.3     1  UNL1        0.0001
     18 C         139.1464  141.7672  164.4251 C.3     1  UNL1        0.0019
     19 N         144.6437  142.7127  161.9205 N.3     1  UNL1       -0.2723
     20 C         143.9527  143.9279  162.4642 C.3     1  UNL1        0.0738
     21 C         143.8527  144.1336  163.9467 C.3     1  UNL1        0.0369
     22 C         144.4438  143.1240  164.8855 C.3     1  UNL1        0.0745
     23 C         145.1349  141.9087  164.3417 C.3     1  UNL1        0.0369
     24 C         145.2349  141.7031  162.8593 C.3     1  UNL1        0.0738
     25 C         144.7437  142.5070  160.4380 C.3     1  UNL1        0.0768
     26 C         143.7597  141.6188  159.7360 C.3     1  UNL1        0.0437
     27 C         141.7759  138.2527  161.9685 C.ar    1  UNL1        0.1387
     28 C         143.0584  138.0094  161.2295 C.ar    1  UNL1        0.0366
     29 C         143.7197  139.1314  160.4854 C.ar    1  UNL1       -0.0011
     30 C         143.0985  140.4968  160.4801 C.ar    1  UNL1       -0.0206
     31 C         141.8160  140.7401  161.2191 C.ar    1  UNL1       -0.0011
     32 C         141.1547  139.6180  161.9632 C.ar    1  UNL1        0.0366
     33 C         140.9880  137.1931  164.2060 C.3     1  UNL1        0.2525
     34 O         141.1146  137.1307  162.7126 O.3     1  UNL1       -0.4714
@<TRIPOS>BOND
     1    33    34    1
     2    34    27    1
     3    27    28   ar
     4    28    29   ar
     5    29    30   ar
     6    30    26    1
     7    26    25    1
     8    25    19    1
     9    19    20    1
    10    20    21    1
    11    21    22    1
    12    22     1    1
    13     1     3    1
    14     3     4   ar
    15     4     5   ar
    16     5     6   ar
    17     6     7   ar
    18     7     8   ar
    19     8     9   ar
    20     9    10   ar
    21    10    11   ar
    22    11    12    1
    23    12    13    1
    24    13    14    1
    25    14    15    1
    26    15    16    1
    27    16    17    1
    28    17    18    1
    29    22    23    1
    30    23    24    1
    31    30    31   ar
    32    31    32   ar
    33    32    27   ar
    34    24    19    1
    35    11     3   ar
    36    18    13    1
    37    10     5   ar
    38     1     2    1
@<TRIPOS>MOLECULE
*****
 34 38 0 0 0
SMALL
GASTEIGER

@<TRIPOS>ATOM
      1 N         141.1063  137.1428  163.2395 N.pl3   1  UNL1       -0.3059
      2 H         141.2837  136.1850  163.3823 H       1  UNL1        0.1495
      3 C         141.0934  137.7039  161.8484 C.ar    1  UNL1        0.1978
      4 N         139.8850  137.8677  160.9750 N.ar    1  UNL1       -0.2138
      5 C         140.3313  138.4647  159.6733 C.ar    1  UNL1        0.0999
      6 C         139.5780  138.8480  158.4342 C.ar    1  UNL1        0.0207
      7 C         140.3089  139.4365  157.2640 C.ar    1  UNL1        0.0016
      8 C         141.7932  139.6416  157.3329 C.ar    1  UNL1        0.0016
      9 C         142.5466  139.2582  158.5720 C.ar    1  UNL1        0.0188
     10 C         141.8156  138.6698  159.7422 C.ar    1  UNL1        0.0798
     11 N         142.2866  138.1996  161.0865 N.ar    1  UNL1       -0.2998
     12 C         143.7023  138.2213  161.5819 C.3     1  UNL1        0.1087
     13 C         144.2627  139.4693  162.1969 C.3     1  UNL1        0.0227
     14 C         144.7672  139.4481  163.6094 C.3     1  UNL1        0.0019
     15 C         145.3276  140.6962  164.2245 C.3     1  UNL1        0.0001
     16 C         145.3835  141.9655  163.4270 C.3     1  UNL1        0.0000
     17 C         144.8790  141.9866  162.0146 C.3     1  UNL1        0.0001
     18 C         144.3186  140.7386  161.3995 C.3     1  UNL1        0.0019
     19 N         140.3345  139.8376  166.7598 N.3     1  UNL1       -0.2723
     20 C         139.2177  139.4942  165.8191 C.3     1  UNL1        0.0738
     21 C         139.4750  138.5959  164.6456 C.3     1  UNL1        0.0369
     22 C         140.8490  138.0411  164.4129 C.3     1  UNL1        0.0745
     23 C         141.9658  138.3845  165.3537 C.3     1  UNL1        0.0369
     24 C         141.7085  139.2827  166.5271 C.3     1  UNL1        0.0738
     25 C         140.0772  140.7358  167.9333 C.3     1  UNL1        0.0768
     26 C         140.5329  142.1645  167.8983 C.3     1  UNL1        0.0437
     27 C         141.0361  144.2696  163.9530 C.ar    1  UNL1        0.1387
     28 C         142.1679  143.4689  164.5256 C.ar    1  UNL1        0.0366
     29 C         142.0002  142.7672  165.8407 C.ar    1  UNL1       -0.0011
     30 C         140.7006  142.8662  166.5833 C.ar    1  UNL1       -0.0206
     31 C         139.5688  143.6669  166.0107 C.ar    1  UNL1       -0.0011
     32 C         139.7366  144.3686  164.6955 C.ar    1  UNL1        0.0366
     33 C         140.0369  145.6718  162.0074 C.3     1  UNL1        0.2525
     34 O         141.2038  144.9713  162.6380 O.3     1  UNL1       -0.4714
@<TRIPOS>BOND
     1    33    34    1
     2    34    27    1
     3    27    28   ar
     4    28    29   ar
     5    29    30   ar
     6    30    26    1
     7    26    25    1
     8    25    19    1
     9    19    20    1
    10    20    21    1
    11    21    22    1
    12    22     1    1
    13     1     3    1
    14     3     4   ar
    15     4     5   ar
    16     5     6   ar
    17     6     7   ar
    18     7     8   ar
    19     8     9   ar
    20     9    10   ar
    21    10    11   ar
    22    11    12    1
    23    12    13    1
    24    13    14    1
    25    14    15    1
    26    15    16    1
    27    16    17    1
    28    17    18    1
    29    22    23    1
    30    23    24    1
    31    30    31   ar
    32    31    32   ar
    33    32    27   ar
    34    24    19    1
    35    11     3   ar
    36    18    13    1
    37    10     5   ar
    38     1     2    1
@<TRIPOS>MOLECULE
*****
 34 38 0 0 0
SMALL
GASTEIGER

@<TRIPOS>ATOM
      1 N         143.9860  139.0627  165.2625 N.pl3   1  UNL1       -0.3059
      2 H         144.9469  138.9256  165.4273 H       1  UNL1        0.1495
      3 C         143.0801  139.4562  166.3915 C.ar    1  UNL1        0.1978
      4 N         143.1269  138.9143  167.7894 N.ar    1  UNL1       -0.2138
      5 C         142.0440  139.5838  168.5826 C.ar    1  UNL1        0.0999
      6 C         141.6175  139.4467  170.0141 C.ar    1  UNL1        0.0207
      7 C         140.4750  140.2653  170.5379 C.ar    1  UNL1        0.0016
      8 C         139.7589  141.2211  169.6302 C.ar    1  UNL1        0.0016
      9 C         140.1855  141.3582  168.1987 C.ar    1  UNL1        0.0188
     10 C         141.3280  140.5396  167.6749 C.ar    1  UNL1        0.0798
     11 N         141.9683  140.4607  166.3207 N.ar    1  UNL1       -0.2998
     12 C         141.5673  141.2480  165.1086 C.3     1  UNL1        0.1087
     13 C         142.2498  142.5472  164.7985 C.3     1  UNL1        0.0227
     14 C         141.4703  143.6792  164.1975 C.3     1  UNL1        0.0019
     15 C         142.1527  144.9784  163.8874 C.3     1  UNL1        0.0001
     16 C         143.6147  145.1458  164.1783 C.3     1  UNL1        0.0000
     17 C         144.3942  144.0139  164.7793 C.3     1  UNL1        0.0001
     18 C         143.7117  142.7146  165.0894 C.3     1  UNL1        0.0019
     19 N         142.3119  138.5090  161.1224 N.3     1  UNL1       -0.2723
     20 C         141.7014  137.7793  162.2820 C.3     1  UNL1        0.0738
     21 C         142.2595  137.9638  163.6621 C.3     1  UNL1        0.0369
     22 C         143.4280  138.8781  163.8825 C.3     1  UNL1        0.0745
     23 C         144.0385  139.6079  162.7228 C.3     1  UNL1        0.0369
     24 C         143.4804  139.4233  161.3428 C.3     1  UNL1        0.0738
     25 C         141.7538  138.3244  159.7423 C.3     1  UNL1        0.0768
     26 C         140.8596  139.3722  159.1486 C.3     1  UNL1        0.0437
     27 C         138.1766  141.8127  161.8124 C.ar    1  UNL1        0.1387
     28 C         137.7312  140.4627  161.3335 C.ar    1  UNL1        0.0366
     29 C         138.6255  139.6492  160.4456 C.ar    1  UNL1       -0.0011
     30 C         139.9653  140.1857  160.0365 C.ar    1  UNL1       -0.0206
     31 C         140.4107  141.5356  160.5154 C.ar    1  UNL1       -0.0011
     32 C         139.5163  142.3491  161.4033 C.ar    1  UNL1        0.0366
     33 C         137.6972  144.0045  163.1224 C.3     1  UNL1        0.2525
     34 O         137.2823  142.6262  162.7003 O.3     1  UNL1       -0.4714
@<TRIPOS>BOND
     1    33    34    1
     2    34    27    1
     3    27    28   ar
     4    28    29   ar
     5    29    30   ar
     6    30    26    1
     7    26    25    1
     8    25    19    1
     9    19    20    1
    10    20    21    1
    11    21    22    1
    12    22     1    1
    13     1     3    1
    14     3     4   ar
    15     4     5   ar
    16     5     6   ar
    17     6     7   ar
    18     7     8   ar
    19     8     9   ar
    20     9    10   ar
    21    10    11   ar
    22    11    12    1
    23    12    13    1
    24    13    14    1
    25    14    15    1
    26    15    16    1
    27    16    17    1
    28    17    18    1
    29    22    23    1
    30    23    24    1
    31    30    31   ar
    32    31    32   ar
    33    32    27   ar
    34    24    19    1
    35    11     3   ar
    36    18    13    1
    37    10     5   ar
    38     1     2    1
@<TRIPOS>MOLECULE
*****
 34 38 0 0 0
SMALL
GASTEIGER

@<TRIPOS>ATOM
      1 N         138.2715  139.1565  166.6535 N.pl3   1  UNL1       -0.3059
      2 H         137.4158  138.8162  167.0017 H       1  UNL1        0.1495
      3 C         139.2337  139.8479  167.5733 C.ar    1  UNL1        0.1978
      4 N         139.1496  139.8860  169.0704 N.ar    1  UNL1       -0.2138
      5 C         140.3129  140.6843  169.5799 C.ar    1  UNL1        0.0999
      6 C         140.7446  141.0554  170.9677 C.ar    1  UNL1        0.0207
      7 C         141.9795  141.8817  171.1731 C.ar    1  UNL1        0.0016
      8 C         142.7826  142.3369  169.9908 C.ar    1  UNL1        0.0016
      9 C         142.3509  141.9658  168.6031 C.ar    1  UNL1        0.0188
     10 C         141.1160  141.1394  168.3977 C.ar    1  UNL1        0.0798
     11 N         140.4490  140.6225  167.1575 N.ar    1  UNL1       -0.2998
     12 C         140.9155  140.8418  165.7488 C.3     1  UNL1        0.1087
     13 C         140.7386  142.1826  165.1003 C.3     1  UNL1        0.0227
     14 C         141.5931  142.5680  163.9292 C.3     1  UNL1        0.0019
     15 C         141.4162  143.9089  163.2806 C.3     1  UNL1        0.0001
     16 C         140.3847  144.8645  163.8030 C.3     1  UNL1        0.0000
     17 C         139.5301  144.4791  164.9740 C.3     1  UNL1        0.0001
     18 C         139.7071  143.1382  165.6226 C.3     1  UNL1        0.0019
     19 N         139.2959  138.6379  162.3024 N.3     1  UNL1       -0.2723
     20 C         139.7600  137.6263  163.3079 C.3     1  UNL1        0.0738
     21 C         139.4185  137.7991  164.7583 C.3     1  UNL1        0.0369
     22 C         138.6129  138.9836  165.2032 C.3     1  UNL1        0.0745
     23 C         138.1488  139.9953  164.1976 C.3     1  UNL1        0.0369
     24 C         138.4903  139.8225  162.7473 C.3     1  UNL1        0.0738
     25 C         139.6373  138.4651  160.8520 C.3     1  UNL1        0.0768
     26 C         141.0494  138.1652  160.4445 C.3     1  UNL1        0.0437
     27 C         144.4428  140.5855  162.1405 C.ar    1  UNL1        0.1387
     28 C         143.5182  141.1960  161.1294 C.ar    1  UNL1        0.0366
     29 C         142.3870  140.3892  160.5641 C.ar    1  UNL1       -0.0011
     30 C         142.1805  138.9719  161.0098 C.ar    1  UNL1       -0.0206
     31 C         143.1052  138.3614  162.0209 C.ar    1  UNL1       -0.0011
     32 C         144.2364  139.1682  162.5862 C.ar    1  UNL1        0.0366
     33 C         145.3759  142.1814  163.9660 C.3     1  UNL1        0.2525
     34 O         145.5740  141.3922  162.7058 O.3     1  UNL1       -0.4714
@<TRIPOS>BOND
     1    33    34    1
     2    34    27    1
     3    27    28   ar
     4    28    29   ar
     5    29    30   ar
     6    30    26    1
     7    26    25    1
     8    25    19    1
     9    19    20    1
    10    20    21    1
    11    21    22    1
    12    22     1    1
    13     1     3    1
    14     3     4   ar
    15     4     5   ar
    16     5     6   ar
    17     6     7   ar
    18     7     8   ar
    19     8     9   ar
    20     9    10   ar
    21    10    11   ar
    22    11    12    1
    23    12    13    1
    24    13    14    1
    25    14    15    1
    26    15    16    1
    27    16    17    1
    28    17    18    1
    29    22    23    1
    30    23    24    1
    31    30    31   ar
    32    31    32   ar
    33    32    27   ar
    34    24    19    1
    35    11     3   ar
    36    18    13    1
    37    10     5   ar
    38     1     2    1
@<TRIPOS>MOLECULE
*****
 34 38 0 0 0
SMALL
GASTEIGER

@<TRIPOS>ATOM
      1 N         143.9572  138.7375  165.4035 N.pl3   1  UNL1       -0.3059
      2 H         144.4187  137.8693  165.4525 H       1  UNL1        0.1495
      3 C         143.0327  139.1588  166.5070 C.ar    1  UNL1        0.1978
      4 N         143.1865  138.8256  167.9615 N.ar    1  UNL1       -0.2138
      5 C         142.0409  139.4481  168.7033 C.ar    1  UNL1        0.0999
      6 C         141.6712  139.4540  170.1570 C.ar    1  UNL1        0.0207
      7 C         140.4397  140.1777  170.6146 C.ar    1  UNL1        0.0016
      8 C         139.5779  140.8956  169.6187 C.ar    1  UNL1        0.0016
      9 C         139.9476  140.8897  168.1650 C.ar    1  UNL1        0.0188
     10 C         141.1791  140.1659  167.7073 C.ar    1  UNL1        0.0798
     11 N         141.7921  139.9871  166.3500 N.ar    1  UNL1       -0.2998
     12 C         141.2581  140.5396  165.0617 C.3     1  UNL1        0.1087
     13 C         140.3045  139.7284  164.2357 C.3     1  UNL1        0.0227
     14 C         139.2022  140.4081  163.4787 C.3     1  UNL1        0.0019
     15 C         138.2485  139.5968  162.6526 C.3     1  UNL1        0.0001
     16 C         138.3972  138.1058  162.5835 C.3     1  UNL1        0.0000
     17 C         139.4994  137.4261  163.3405 C.3     1  UNL1        0.0001
     18 C         140.4531  138.2373  164.1666 C.3     1  UNL1        0.0019
     19 N         144.6210  141.4422  161.8688 N.3     1  UNL1       -0.2723
     20 C         144.0094  140.0869  161.6717 C.3     1  UNL1        0.0738
     21 C         143.7880  139.1853  162.8499 C.3     1  UNL1        0.0369
     22 C         144.1785  139.6390  164.2253 C.3     1  UNL1        0.0745
     23 C         144.7902  140.9944  164.4224 C.3     1  UNL1        0.0369
     24 C         145.0115  141.8960  163.2442 C.3     1  UNL1        0.0738
     25 C         144.8424  142.3439  160.6906 C.3     1  UNL1        0.0768
     26 C         143.6813  143.0566  160.0631 C.3     1  UNL1        0.0437
     27 C         140.1860  144.3278  162.5964 C.ar    1  UNL1        0.1387
     28 C         141.5514  144.8865  162.8676 C.ar    1  UNL1        0.0366
     29 C         142.7165  144.4628  162.0232 C.ar    1  UNL1       -0.0011
     30 C         142.5162  143.4803  160.9075 C.ar    1  UNL1       -0.0206
     31 C         141.1508  142.9216  160.6363 C.ar    1  UNL1       -0.0011
     32 C         139.9857  143.3453  161.4807 C.ar    1  UNL1        0.0366
     33 C         137.6536  144.2007  163.1628 C.3     1  UNL1        0.2525
     34 O         139.0210  144.7515  163.4408 O.3     1  UNL1       -0.4714
@<TRIPOS>BOND
     1    33    34    1
     2    34    27    1
     3    27    28   ar
     4    28    29   ar
     5    29    30   ar
     6    30    26    1
     7    26    25    1
     8    25    19    1
     9    19    20    1
    10    20    21    1
    11    21    22    1
    12    22     1    1
    13     1     3    1
    14     3     4   ar
    15     4     5   ar
    16     5     6   ar
    17     6     7   ar
    18     7     8   ar
    19     8     9   ar
    20     9    10   ar
    21    10    11   ar
    22    11    12    1
    23    12    13    1
    24    13    14    1
    25    14    15    1
    26    15    16    1
    27    16    17    1
    28    17    18    1
    29    22    23    1
    30    23    24    1
    31    30    31   ar
    32    31    32   ar
    33    32    27   ar
    34    24    19    1
    35    11     3   ar
    36    18    13    1
    37    10     5   ar
    38     1     2    1
