@<TRIPOS>MOLECULE
*****
 31 33 0 0 0
SMALL
GASTEIGER

@<TRIPOS>ATOM
      1 C         138.6828  141.1867  164.6004 C.ar    1  UNL1        0.0826
      2 C         139.1782  140.4117  163.4154 C.ar    1  UNL1        0.0548
      3 C         138.1689  140.5525  162.3147 C.ar    1  UNL1        0.1543
      4 N         137.0498  141.4145  162.8194 N.ar    1  UNL1       -0.1574
      5 N         137.3674  141.8064  164.2320 N.ar    1  UNL1       -0.2743
      6 H         136.8104  142.3712  164.8151 H       1  UNL1        0.1890
      7 C         139.5244  140.1235  166.8166 C.ar    1  UNL1        0.1430
      8 C         140.2220  140.2556  168.1379 C.ar    1  UNL1        0.0372
      9 C         140.7756  141.5829  168.5644 C.ar    1  UNL1        0.0062
     10 C         140.6316  142.7781  167.6696 C.ar    1  UNL1        0.0372
     11 C         139.9340  142.6460  166.3483 C.ar    1  UNL1        0.1428
     12 C         139.3804  141.3187  165.9218 C.ar    1  UNL1        0.0849
     13 C         137.6359  138.3413  166.9010 C.3     1  UNL1        0.2525
     14 O         138.9708  138.7963  166.3901 O.3     1  UNL1       -0.4713
     15 O         139.7900  143.8412  165.4534 O.3     1  UNL1       -0.4753
     16 C         140.7384  144.0393  164.3082 C.3     1  UNL1        0.2068
     17 C         140.2151  144.1064  162.9041 C.3     1  UNL1        0.0641
     18 C         139.0408  144.9825  162.5824 C.3     1  UNL1        0.0690
     19 N         137.6498  144.4244  162.6432 N.3     1  UNL1       -0.3210
     20 H         137.5364  143.7144  161.9197 H       1  UNL1        0.1189
     21 H         136.9755  145.1746  162.4920 H       1  UNL1        0.1189
     22 N         138.2623  139.9391  160.9491 N.pl3   1  UNL1       -0.2807
     23 H         138.4320  138.9740  160.8535 H       1  UNL1        0.1551
     24 C         138.0972  140.7960  159.7291 C.ar    1  UNL1        0.1527
     25 C         138.5521  142.2253  159.7493 C.ar    1  UNL1        0.1340
     26 N         138.3870  143.0822  158.5293 N.ar    1  UNL1       -0.2290
     27 C         137.7671  142.5099  157.2891 C.ar    1  UNL1        0.1683
     28 C         137.3122  141.0807  157.2689 C.ar    1  UNL1        0.1299
     29 N         137.4773  140.2238  158.4889 N.ar    1  UNL1       -0.2251
     30 C         137.6020  143.3668  156.0690 C.1     1  UNL1        0.1214
     31 N         137.4369  144.2237  154.8490 N.1     1  UNL1       -0.1892
@<TRIPOS>BOND
     1    13    14    1
     2    14     7    1
     3     7     8   ar
     4     8     9   ar
     5     9    10   ar
     6    10    11   ar
     7    11    15    1
     8    15    16    1
     9    16    17    1
    10    17    18    1
    11    18    19    1
    12    11    12   ar
    13    12     1    1
    14     1     2   ar
    15     2     3   ar
    16     3    22    1
    17    22    24    1
    18    24    25   ar
    19    25    26   ar
    20    26    27   ar
    21    27    30    1
    22    30    31    3
    23    27    28   ar
    24    28    29   ar
    25     3     4   ar
    26     4     5   ar
    27    12     7   ar
    28     5     1   ar
    29    29    24   ar
    30    19    20    1
    31    19    21    1
    32    22    23    1
    33     5     6    1
@<TRIPOS>MOLECULE
*****
 31 33 0 0 0
SMALL
GASTEIGER

@<TRIPOS>ATOM
      1 C         139.5404  142.8796  164.7638 C.ar    1  UNL1        0.0826
      2 C         140.7627  143.1326  163.9320 C.ar    1  UNL1        0.0548
      3 C         140.6336  144.4966  163.3214 C.ar    1  UNL1        0.1543
      4 N         139.3314  145.0865  163.7757 N.ar    1  UNL1       -0.1574
      5 N         138.6558  144.0871  164.6672 N.ar    1  UNL1       -0.2743
      6 H         137.7847  144.2033  165.1109 H       1  UNL1        0.1890
      7 C         139.9035  141.4301  166.8892 C.ar    1  UNL1        0.1430
      8 C         139.6161  140.1876  167.6788 C.ar    1  UNL1        0.0372
      9 C         138.6782  139.1521  167.1328 C.ar    1  UNL1        0.0062
     10 C         138.0277  139.3590  165.7972 C.ar    1  UNL1        0.0372
     11 C         138.3151  140.6015  165.0075 C.ar    1  UNL1        0.1428
     12 C         139.2530  141.6370  165.5535 C.ar    1  UNL1        0.0849
     13 C         140.6836  142.9513  168.8455 C.3     1  UNL1        0.2525
     14 O         140.8414  142.4656  167.4351 O.3     1  UNL1       -0.4713
     15 O         137.6646  140.8085  163.6718 O.3     1  UNL1       -0.4753
     16 C         138.2867  140.2278  162.4366 C.3     1  UNL1        0.2068
     17 C         139.0535  141.1105  161.4971 C.3     1  UNL1        0.0641
     18 C         138.4129  142.3461  160.9377 C.3     1  UNL1        0.0690
     19 N         137.5831  143.2274  161.8236 N.3     1  UNL1       -0.3210
     20 H         136.7484  142.7218  162.1204 H       1  UNL1        0.1189
     21 H         137.3086  144.0645  161.3094 H       1  UNL1        0.1189
     22 N         141.6314  145.1551  162.4154 N.pl3   1  UNL1       -0.2807
     23 H         141.8205  146.1168  162.5077 H       1  UNL1        0.1551
     24 C         142.3412  144.3483  161.3689 C.ar    1  UNL1        0.1527
     25 C         141.7239  144.1690  160.0135 C.ar    1  UNL1        0.1340
     26 N         142.4336  143.3621  158.9670 N.ar    1  UNL1       -0.2290
     27 C         143.7606  142.7346  159.2757 C.ar    1  UNL1        0.1683
     28 C         144.3778  142.9139  160.6310 C.ar    1  UNL1        0.1299
     29 N         143.6681  143.7207  161.6776 N.ar    1  UNL1       -0.2251
     30 C         144.4704  141.9277  158.2292 C.1     1  UNL1        0.1214
     31 N         145.1801  141.1209  157.1827 N.1     1  UNL1       -0.1892
@<TRIPOS>BOND
     1    13    14    1
     2    14     7    1
     3     7     8   ar
     4     8     9   ar
     5     9    10   ar
     6    10    11   ar
     7    11    15    1
     8    15    16    1
     9    16    17    1
    10    17    18    1
    11    18    19    1
    12    11    12   ar
    13    12     1    1
    14     1     2   ar
    15     2     3   ar
    16     3    22    1
    17    22    24    1
    18    24    25   ar
    19    25    26   ar
    20    26    27   ar
    21    27    30    1
    22    30    31    3
    23    27    28   ar
    24    28    29   ar
    25     3     4   ar
    26     4     5   ar
    27    12     7   ar
    28     5     1   ar
    29    29    24   ar
    30    19    20    1
    31    19    21    1
    32    22    23    1
    33     5     6    1
@<TRIPOS>MOLECULE
*****
 31 33 0 0 0
SMALL
GASTEIGER

@<TRIPOS>ATOM
      1 C         141.1623  142.0412  165.6694 C.ar    1  UNL1        0.0826
      2 C         140.7908  143.2030  164.7963 C.ar    1  UNL1        0.0548
      3 C         142.0563  143.8887  164.3740 C.ar    1  UNL1        0.1543
      4 N         143.2099  143.1508  164.9861 N.ar    1  UNL1       -0.1574
      5 N         142.6574  142.0089  165.7866 N.ar    1  UNL1       -0.2743
      6 H         143.1837  141.3534  166.2991 H       1  UNL1        0.1890
      7 C         140.1389  140.9770  167.8072 C.ar    1  UNL1        0.1430
      8 C         139.1832  140.0161  168.4500 C.ar    1  UNL1        0.0372
      9 C         138.2951  139.1586  167.5980 C.ar    1  UNL1        0.0062
     10 C         138.3628  139.2619  166.1031 C.ar    1  UNL1        0.0372
     11 C         139.3185  140.2228  165.4603 C.ar    1  UNL1        0.1428
     12 C         140.2066  141.0803  166.3123 C.ar    1  UNL1        0.0849
     13 C         140.4750  143.0642  169.3173 C.3     1  UNL1        0.2525
     14 O         141.0270  141.8345  168.6592 O.3     1  UNL1       -0.4713
     15 O         139.3862  140.3261  163.9653 O.3     1  UNL1       -0.4753
     16 C         138.1918  140.8000  163.1915 C.3     1  UNL1        0.2068
     17 C         137.4853  142.0589  163.5990 C.3     1  UNL1        0.0641
     18 C         137.6669  143.3139  162.7978 C.3     1  UNL1        0.0690
     19 N         137.7500  143.2431  161.3017 N.3     1  UNL1       -0.3210
     20 H         138.5974  142.7439  161.0314 H       1  UNL1        0.1189
     21 H         137.7746  144.1876  160.9174 H       1  UNL1        0.1189
     22 N         142.1514  145.0999  163.4941 N.pl3   1  UNL1       -0.2807
     23 H         142.5624  145.9262  163.8369 H       1  UNL1        0.1551
     24 C         141.6205  145.0519  162.0921 C.ar    1  UNL1        0.1527
     25 C         140.3136  145.7102  161.7621 C.ar    1  UNL1        0.1340
     26 N         139.7826  145.6622  160.3600 N.ar    1  UNL1       -0.2290
     27 C         140.5585  144.9560  159.2880 C.ar    1  UNL1        0.1683
     28 C         141.8653  144.2978  159.6180 C.ar    1  UNL1        0.1299
     29 N         142.3962  144.3457  161.0200 N.ar    1  UNL1       -0.2251
     30 C         140.0275  144.9081  157.8859 C.1     1  UNL1        0.1214
     31 N         139.4966  144.8601  156.4838 N.1     1  UNL1       -0.1892
@<TRIPOS>BOND
     1    13    14    1
     2    14     7    1
     3     7     8   ar
     4     8     9   ar
     5     9    10   ar
     6    10    11   ar
     7    11    15    1
     8    15    16    1
     9    16    17    1
    10    17    18    1
    11    18    19    1
    12    11    12   ar
    13    12     1    1
    14     1     2   ar
    15     2     3   ar
    16     3    22    1
    17    22    24    1
    18    24    25   ar
    19    25    26   ar
    20    26    27   ar
    21    27    30    1
    22    30    31    3
    23    27    28   ar
    24    28    29   ar
    25     3     4   ar
    26     4     5   ar
    27    12     7   ar
    28     5     1   ar
    29    29    24   ar
    30    19    20    1
    31    19    21    1
    32    22    23    1
    33     5     6    1
@<TRIPOS>MOLECULE
*****
 31 33 0 0 0
SMALL
GASTEIGER

@<TRIPOS>ATOM
      1 C         141.0849  144.2913  163.5606 C.ar    1  UNL1        0.0826
      2 C         141.7406  144.1318  162.2210 C.ar    1  UNL1        0.0548
      3 C         141.2281  145.2176  161.3219 C.ar    1  UNL1        0.1543
      4 N         140.2557  146.0482  162.1058 N.ar    1  UNL1       -0.1574
      5 N         140.1672  145.4757  163.4894 N.ar    1  UNL1       -0.2743
      6 H         139.6054  145.8173  164.2222 H       1  UNL1        0.1890
      7 C         142.7032  143.0671  165.1831 C.ar    1  UNL1        0.1430
      8 C         142.9260  142.1953  166.3832 C.ar    1  UNL1        0.0372
      9 C         141.7533  141.6759  167.1610 C.ar    1  UNL1        0.0062
     10 C         140.3578  142.0282  166.7387 C.ar    1  UNL1        0.0372
     11 C         140.1350  142.9000  165.5386 C.ar    1  UNL1        0.1428
     12 C         141.3077  143.4194  164.7608 C.ar    1  UNL1        0.0849
     13 C         144.8730  142.6292  163.8229 C.3     1  UNL1        0.2525
     14 O         143.8759  143.5865  164.4053 O.3     1  UNL1       -0.4713
     15 O         138.7395  143.2524  165.1162 O.3     1  UNL1       -0.4753
     16 C         137.8465  142.2014  164.5264 C.3     1  UNL1        0.2068
     17 C         137.9346  141.8764  163.0647 C.3     1  UNL1        0.0641
     18 C         137.9380  142.9808  162.0497 C.3     1  UNL1        0.0690
     19 N         137.5970  144.3815  162.4643 N.3     1  UNL1       -0.3210
     20 H         136.6206  144.4214  162.7567 H       1  UNL1        0.1189
     21 H         137.7423  145.0140  161.6774 H       1  UNL1        0.1189
     22 N         141.6194  145.4347  159.8902 N.pl3   1  UNL1       -0.2807
     23 H         142.4696  145.8818  159.6746 H       1  UNL1        0.1551
     24 C         140.7153  144.9705  158.7869 C.ar    1  UNL1        0.1527
     25 C         139.9566  143.6844  158.9301 C.ar    1  UNL1        0.1340
     26 N         139.0525  143.2202  157.8268 N.ar    1  UNL1       -0.2290
     27 C         138.9071  144.0421  156.5805 C.ar    1  UNL1        0.1683
     28 C         139.6657  145.3282  156.4374 C.ar    1  UNL1        0.1299
     29 N         140.5698  145.7923  157.5406 N.ar    1  UNL1       -0.2251
     30 C         138.0030  143.5780  155.4772 C.1     1  UNL1        0.1214
     31 N         137.0989  143.1138  154.3740 N.1     1  UNL1       -0.1892
@<TRIPOS>BOND
     1    13    14    1
     2    14     7    1
     3     7     8   ar
     4     8     9   ar
     5     9    10   ar
     6    10    11   ar
     7    11    15    1
     8    15    16    1
     9    16    17    1
    10    17    18    1
    11    18    19    1
    12    11    12   ar
    13    12     1    1
    14     1     2   ar
    15     2     3   ar
    16     3    22    1
    17    22    24    1
    18    24    25   ar
    19    25    26   ar
    20    26    27   ar
    21    27    30    1
    22    30    31    3
    23    27    28   ar
    24    28    29   ar
    25     3     4   ar
    26     4     5   ar
    27    12     7   ar
    28     5     1   ar
    29    29    24   ar
    30    19    20    1
    31    19    21    1
    32    22    23    1
    33     5     6    1
@<TRIPOS>MOLECULE
*****
 31 33 0 0 0
SMALL
GASTEIGER

@<TRIPOS>ATOM
      1 C         139.7767  140.6073  165.1728 C.ar    1  UNL1        0.0826
      2 C         139.7974  141.9063  164.4230 C.ar    1  UNL1        0.0548
      3 C         138.3926  142.2209  164.0019 C.ar    1  UNL1        0.1543
      4 N         137.5035  141.1163  164.4914 N.ar    1  UNL1       -0.1574
      5 N         138.3589  140.1191  165.2151 N.ar    1  UNL1       -0.2743
      6 H         138.0450  139.2897  165.6427 H       1  UNL1        0.1890
      7 C         141.3085  140.1379  167.2181 C.ar    1  UNL1        0.1430
      8 C         142.4967  139.4481  167.8200 C.ar    1  UNL1        0.0372
      9 C         143.3415  138.5381  166.9784 C.ar    1  UNL1        0.0062
     10 C         142.9980  138.3178  165.5350 C.ar    1  UNL1        0.0372
     11 C         141.8098  139.0076  164.9332 C.ar    1  UNL1        0.1428
     12 C         140.9650  139.9176  165.7747 C.ar    1  UNL1        0.0849
     13 C         139.5212  140.4711  169.0741 C.3     1  UNL1        0.2525
     14 O         140.4637  141.0479  168.0597 O.3     1  UNL1       -0.4713
     15 O         141.4662  138.7873  163.4897 O.3     1  UNL1       -0.4753
     16 C         140.6829  137.5748  163.0818 C.3     1  UNL1        0.2068
     17 C         139.2869  137.7263  162.5545 C.3     1  UNL1        0.0641
     18 C         138.8874  138.9830  161.8395 C.3     1  UNL1        0.0690
     19 N         137.4908  139.5128  161.9774 N.3     1  UNL1       -0.3210
     20 H         136.8352  138.8580  161.5511 H       1  UNL1        0.1189
     21 H         137.4221  140.4163  161.5091 H       1  UNL1        0.1189
     22 N         137.9538  143.4281  163.2272 N.pl3   1  UNL1       -0.2807
     23 H         137.1021  143.8707  163.4462 H       1  UNL1        0.1551
     24 C         138.8126  143.9610  162.1188 C.ar    1  UNL1        0.1527
     25 C         139.5694  145.2425  162.3064 C.ar    1  UNL1        0.1340
     26 N         140.4283  145.7754  161.1981 N.ar    1  UNL1       -0.2290
     27 C         140.5303  145.0268  159.9022 C.ar    1  UNL1        0.1683
     28 C         139.7735  143.7454  159.7147 C.ar    1  UNL1        0.1299
     29 N         138.9147  143.2125  160.8230 N.ar    1  UNL1       -0.2251
     30 C         141.3892  145.5597  158.7938 C.1     1  UNL1        0.1214
     31 N         142.2480  146.0925  157.6855 N.1     1  UNL1       -0.1892
@<TRIPOS>BOND
     1    13    14    1
     2    14     7    1
     3     7     8   ar
     4     8     9   ar
     5     9    10   ar
     6    10    11   ar
     7    11    15    1
     8    15    16    1
     9    16    17    1
    10    17    18    1
    11    18    19    1
    12    11    12   ar
    13    12     1    1
    14     1     2   ar
    15     2     3   ar
    16     3    22    1
    17    22    24    1
    18    24    25   ar
    19    25    26   ar
    20    26    27   ar
    21    27    30    1
    22    30    31    3
    23    27    28   ar
    24    28    29   ar
    25     3     4   ar
    26     4     5   ar
    27    12     7   ar
    28     5     1   ar
    29    29    24   ar
    30    19    20    1
    31    19    21    1
    32    22    23    1
    33     5     6    1
@<TRIPOS>MOLECULE
*****
 31 33 0 0 0
SMALL
GASTEIGER

@<TRIPOS>ATOM
      1 C         141.1002  144.5079  163.1826 C.ar    1  UNL1        0.0826
      2 C         141.0382  144.0672  161.7502 C.ar    1  UNL1        0.0548
      3 C         140.2734  145.1021  160.9795 C.ar    1  UNL1        0.1543
      4 N         139.8626  146.1824  161.9356 N.ar    1  UNL1       -0.1574
      5 N         140.3736  145.8151  163.2972 N.ar    1  UNL1       -0.2743
      6 H         140.2532  146.3400  164.1215 H       1  UNL1        0.1890
      7 C         143.2672  143.6761  164.3498 C.ar    1  UNL1        0.1430
      8 C         143.9378  142.9389  165.4709 C.ar    1  UNL1        0.0372
      9 C         143.1122  142.2964  166.5458 C.ar    1  UNL1        0.0062
     10 C         141.6159  142.3910  166.4997 C.ar    1  UNL1        0.0372
     11 C         140.9453  143.1282  165.3787 C.ar    1  UNL1        0.1428
     12 C         141.7709  143.7707  164.3037 C.ar    1  UNL1        0.0849
     13 C         144.6061  143.4956  162.1307 C.3     1  UNL1        0.2525
     14 O         144.0928  144.3186  163.2749 O.3     1  UNL1       -0.4713
     15 O         139.4489  143.2228  165.3326 O.3     1  UNL1       -0.4753
     16 C         138.6313  142.0136  164.9871 C.3     1  UNL1        0.2068
     17 C         138.2207  141.7669  163.5657 C.3     1  UNL1        0.0641
     18 C         137.7497  142.9071  162.7124 C.3     1  UNL1        0.0690
     19 N         137.5866  144.2734  163.3097 N.3     1  UNL1       -0.3210
     20 H         136.8359  144.2553  164.0000 H       1  UNL1        0.1189
     21 H         137.3557  144.9409  162.5738 H       1  UNL1        0.1189
     22 N         139.9722  145.0634  159.5105 N.pl3   1  UNL1       -0.2807
     23 H         139.9293  145.9009  158.9947 H       1  UNL1        0.1551
     24 C         139.7365  143.7489  158.8275 C.ar    1  UNL1        0.1527
     25 C         140.7299  143.2342  157.8283 C.ar    1  UNL1        0.1340
     26 N         140.4942  141.9196  157.1453 N.ar    1  UNL1       -0.2290
     27 C         139.2652  141.1199  157.4615 C.ar    1  UNL1        0.1683
     28 C         138.2719  141.6347  158.4606 C.ar    1  UNL1        0.1299
     29 N         138.5076  142.9492  159.1436 N.ar    1  UNL1       -0.2251
     30 C         139.0294  139.8054  156.7785 C.1     1  UNL1        0.1214
     31 N         138.7937  138.4909  156.0955 N.1     1  UNL1       -0.1892
@<TRIPOS>BOND
     1    13    14    1
     2    14     7    1
     3     7     8   ar
     4     8     9   ar
     5     9    10   ar
     6    10    11   ar
     7    11    15    1
     8    15    16    1
     9    16    17    1
    10    17    18    1
    11    18    19    1
    12    11    12   ar
    13    12     1    1
    14     1     2   ar
    15     2     3   ar
    16     3    22    1
    17    22    24    1
    18    24    25   ar
    19    25    26   ar
    20    26    27   ar
    21    27    30    1
    22    30    31    3
    23    27    28   ar
    24    28    29   ar
    25     3     4   ar
    26     4     5   ar
    27    12     7   ar
    28     5     1   ar
    29    29    24   ar
    30    19    20    1
    31    19    21    1
    32    22    23    1
    33     5     6    1
@<TRIPOS>MOLECULE
*****
 31 33 0 0 0
SMALL
GASTEIGER

@<TRIPOS>ATOM
      1 C         143.2470  142.6144  164.9940 C.ar    1  UNL1        0.0826
      2 C         142.0759  143.2718  164.3260 C.ar    1  UNL1        0.0548
      3 C         142.4835  144.6625  163.9392 C.ar    1  UNL1        0.1543
      4 N         143.9066  144.8647  164.3682 N.ar    1  UNL1       -0.1574
      5 N         144.3785  143.5989  165.0201 N.ar    1  UNL1       -0.2743
      6 H         145.2736  143.4418  165.3986 H       1  UNL1        0.1890
      7 C         144.1760  140.1894  164.9149 C.ar    1  UNL1        0.1430
      8 C         144.2098  138.7928  165.4610 C.ar    1  UNL1        0.0372
      9 C         143.3483  138.4245  166.6324 C.ar    1  UNL1        0.0062
     10 C         142.4531  139.4528  167.2577 C.ar    1  UNL1        0.0372
     11 C         142.4193  140.8494  166.7116 C.ar    1  UNL1        0.1428
     12 C         143.2808  141.2177  165.5402 C.ar    1  UNL1        0.0849
     13 C         144.5404  140.3316  162.3464 C.3     1  UNL1        0.2525
     14 O         145.0375  140.5576  163.7434 O.3     1  UNL1       -0.4713
     15 O         141.5241  141.8779  167.3369 O.3     1  UNL1       -0.4753
     16 C         141.4849  142.0307  168.8286 C.3     1  UNL1        0.2068
     17 C         140.7452  143.1805  169.4455 C.3     1  UNL1        0.0641
     18 C         139.8927  142.9590  170.6597 C.3     1  UNL1        0.0690
     19 N         140.4228  142.1591  171.8126 N.3     1  UNL1       -0.3210
     20 H         140.5591  141.1913  171.5208 H       1  UNL1        0.1189
     21 H         139.7560  142.1911  172.5838 H       1  UNL1        0.1189
     22 N         141.6197  145.6737  163.2453 N.pl3   1  UNL1       -0.2807
     23 H         141.3183  146.4773  163.7274 H       1  UNL1        0.1551
     24 C         141.2153  145.4603  161.8167 C.ar    1  UNL1        0.1527
     25 C         139.9572  146.0865  161.2919 C.ar    1  UNL1        0.1340
     26 N         139.5527  145.8732  159.8633 N.ar    1  UNL1       -0.2290
     27 C         140.4063  145.0338  158.9594 C.ar    1  UNL1        0.1683
     28 C         141.6643  144.4077  159.4842 C.ar    1  UNL1        0.1299
     29 N         142.0688  144.6210  160.9128 N.ar    1  UNL1       -0.2251
     30 C         140.0019  144.8205  157.5308 C.1     1  UNL1        0.1214
     31 N         139.5975  144.6072  156.1022 N.1     1  UNL1       -0.1892
@<TRIPOS>BOND
     1    13    14    1
     2    14     7    1
     3     7     8   ar
     4     8     9   ar
     5     9    10   ar
     6    10    11   ar
     7    11    15    1
     8    15    16    1
     9    16    17    1
    10    17    18    1
    11    18    19    1
    12    11    12   ar
    13    12     1    1
    14     1     2   ar
    15     2     3   ar
    16     3    22    1
    17    22    24    1
    18    24    25   ar
    19    25    26   ar
    20    26    27   ar
    21    27    30    1
    22    30    31    3
    23    27    28   ar
    24    28    29   ar
    25     3     4   ar
    26     4     5   ar
    27    12     7   ar
    28     5     1   ar
    29    29    24   ar
    30    19    20    1
    31    19    21    1
    32    22    23    1
    33     5     6    1
@<TRIPOS>MOLECULE
*****
 31 33 0 0 0
SMALL
GASTEIGER

@<TRIPOS>ATOM
      1 C         141.1578  141.7123  163.5750 C.ar    1  UNL1        0.0826
      2 C         141.5823  141.8233  162.1407 C.ar    1  UNL1        0.0548
      3 C         142.3792  143.0851  161.9894 C.ar    1  UNL1        0.1543
      4 N         142.4472  143.7539  163.3304 N.ar    1  UNL1       -0.1574
      5 N         141.6923  142.9055  164.3103 N.ar    1  UNL1       -0.2743
      6 H         141.5693  143.0980  165.2679 H       1  UNL1        0.1890
      7 C         140.7833  139.1783  164.0096 C.ar    1  UNL1        0.1430
      8 C         139.9675  138.0690  164.6043 C.ar    1  UNL1        0.0372
      9 C         138.7102  138.3843  165.3592 C.ar    1  UNL1        0.0062
     10 C         138.2687  139.8088  165.5194 C.ar    1  UNL1        0.0372
     11 C         139.0846  140.9182  164.9247 C.ar    1  UNL1        0.1428
     12 C         140.3419  140.6029  164.1698 C.ar    1  UNL1        0.0849
     13 C         143.3573  138.8272  163.9724 C.3     1  UNL1        0.2525
     14 O         142.0406  138.8631  163.2547 O.3     1  UNL1       -0.4713
     15 O         138.6432  142.3428  165.0848 O.3     1  UNL1       -0.4753
     16 C         137.5083  142.8736  164.2600 C.3     1  UNL1        0.2068
     17 C         137.7873  143.7588  163.0817 C.3     1  UNL1        0.0641
     18 C         138.8955  144.7676  163.1472 C.3     1  UNL1        0.0690
     19 N         139.5370  145.0925  164.4637 N.3     1  UNL1       -0.3210
     20 H         138.8555  145.5480  165.0708 H       1  UNL1        0.1189
     21 H         140.3281  145.7181  164.3112 H       1  UNL1        0.1189
     22 N         142.9993  143.5895  160.7201 N.pl3   1  UNL1       -0.2807
     23 H         143.9525  143.4235  160.5381 H       1  UNL1        0.1551
     24 C         142.1671  144.3467  159.7282 C.ar    1  UNL1        0.1527
     25 C         140.8065  144.8454  160.1162 C.ar    1  UNL1        0.1340
     26 N         139.9743  145.6026  159.1242 N.ar    1  UNL1       -0.2290
     27 C         140.5026  145.8613  157.7443 C.ar    1  UNL1        0.1683
     28 C         141.8630  145.3627  157.3564 C.ar    1  UNL1        0.1299
     29 N         142.6952  144.6054  158.3484 N.ar    1  UNL1       -0.2251
     30 C         139.6704  146.6185  156.7524 C.1     1  UNL1        0.1214
     31 N         138.8382  147.3758  155.7604 N.1     1  UNL1       -0.1892
@<TRIPOS>BOND
     1    13    14    1
     2    14     7    1
     3     7     8   ar
     4     8     9   ar
     5     9    10   ar
     6    10    11   ar
     7    11    15    1
     8    15    16    1
     9    16    17    1
    10    17    18    1
    11    18    19    1
    12    11    12   ar
    13    12     1    1
    14     1     2   ar
    15     2     3   ar
    16     3    22    1
    17    22    24    1
    18    24    25   ar
    19    25    26   ar
    20    26    27   ar
    21    27    30    1
    22    30    31    3
    23    27    28   ar
    24    28    29   ar
    25     3     4   ar
    26     4     5   ar
    27    12     7   ar
    28     5     1   ar
    29    29    24   ar
    30    19    20    1
    31    19    21    1
    32    22    23    1
    33     5     6    1
@<TRIPOS>MOLECULE
*****
 31 33 0 0 0
SMALL
GASTEIGER

@<TRIPOS>ATOM
      1 C         139.7680  140.3851  164.9562 C.ar    1  UNL1        0.0826
      2 C         139.7239  141.7224  164.2783 C.ar    1  UNL1        0.0548
      3 C         138.3749  141.8744  163.6402 C.ar    1  UNL1        0.1543
      4 N         137.5852  140.6309  163.9238 N.ar    1  UNL1       -0.1574
      5 N         138.4462  139.7105  164.7371 N.ar    1  UNL1       -0.2743
      6 H         138.1890  138.8200  165.0689 H       1  UNL1        0.1890
      7 C         141.9164  138.9259  165.0300 C.ar    1  UNL1        0.1430
      8 C         143.0782  138.3622  165.7931 C.ar    1  UNL1        0.0372
      9 C         143.2534  138.6937  167.2455 C.ar    1  UNL1        0.0062
     10 C         142.2669  139.5889  167.9348 C.ar    1  UNL1        0.0372
     11 C         141.1051  140.1527  167.1717 C.ar    1  UNL1        0.1428
     12 C         140.9299  139.8212  165.7193 C.ar    1  UNL1        0.0849
     13 C         141.0702  137.3144  163.1762 C.3     1  UNL1        0.2525
     14 O         141.7411  138.5944  163.5776 O.3     1  UNL1       -0.4713
     15 O         140.1185  141.0481  167.8610 O.3     1  UNL1       -0.4753
     16 C         139.7233  140.7751  169.2820 C.3     1  UNL1        0.2068
     17 C         140.0664  141.7617  170.3586 C.3     1  UNL1        0.0641
     18 C         141.4751  141.8601  170.8644 C.3     1  UNL1        0.0690
     19 N         141.9984  140.8383  171.8300 N.3     1  UNL1       -0.3210
     20 H         141.4940  140.9155  172.7132 H       1  UNL1        0.1189
     21 H         142.9925  141.0003  171.9908 H       1  UNL1        0.1189
     22 N         137.8991  143.0613  162.8561 N.pl3   1  UNL1       -0.2807
     23 H         137.0033  143.4343  163.0226 H       1  UNL1        0.1551
     24 C         138.7881  143.6801  161.8184 C.ar    1  UNL1        0.1527
     25 C         139.6311  144.8710  162.1667 C.ar    1  UNL1        0.1340
     26 N         140.5201  145.4898  161.1290 N.ar    1  UNL1       -0.2290
     27 C         140.5662  144.9177  159.7431 C.ar    1  UNL1        0.1683
     28 C         139.7232  143.7268  159.3950 C.ar    1  UNL1        0.1299
     29 N         138.8342  143.1081  160.4327 N.ar    1  UNL1       -0.2251
     30 C         141.4552  145.5364  158.7054 C.1     1  UNL1        0.1214
     31 N         142.3442  146.1552  157.6677 N.1     1  UNL1       -0.1892
@<TRIPOS>BOND
     1    13    14    1
     2    14     7    1
     3     7     8   ar
     4     8     9   ar
     5     9    10   ar
     6    10    11   ar
     7    11    15    1
     8    15    16    1
     9    16    17    1
    10    17    18    1
    11    18    19    1
    12    11    12   ar
    13    12     1    1
    14     1     2   ar
    15     2     3   ar
    16     3    22    1
    17    22    24    1
    18    24    25   ar
    19    25    26   ar
    20    26    27   ar
    21    27    30    1
    22    30    31    3
    23    27    28   ar
    24    28    29   ar
    25     3     4   ar
    26     4     5   ar
    27    12     7   ar
    28     5     1   ar
    29    29    24   ar
    30    19    20    1
    31    19    21    1
    32    22    23    1
    33     5     6    1
