@<TRIPOS>MOLECULE
*****
 42 46 0 0 0
SMALL
GASTEIGER

@<TRIPOS>ATOM
      1 C         143.4635  140.0391  160.8397 C.3     1  UNL1        0.0758
      2 C         143.8764  140.9665  159.7354 C.3     1  UNL1        0.0370
      3 C         143.7933  140.5158  158.3072 C.3     1  UNL1        0.0741
      4 N         143.2973  139.1378  157.9832 N.3     1  UNL1       -0.2688
      5 C         142.8844  138.2104  159.0874 C.3     1  UNL1        0.0741
      6 C         142.9674  138.6611  160.5157 C.3     1  UNL1        0.0370
      7 N         142.4143  141.4929  164.3803 N.am    1  UNL1       -0.2849
      8 C         142.3313  141.0423  162.9520 C.2     1  UNL1        0.3010
      9 O         141.0329  141.1441  162.2078 O.2     1  UNL1       -0.2528
     10 N         143.5465  140.4898  162.2680 N.am    1  UNL1       -0.2905
     11 H         143.2665  141.4261  164.8688 H       1  UNL1        0.1513
     12 H         144.3987  140.4230  162.7565 H       1  UNL1        0.1509
     13 C         141.1991  142.0454  165.0644 C.3     1  UNL1        0.1181
     14 C         140.2274  141.1179  165.7318 C.ar    1  UNL1       -0.0026
     15 C         139.1355  140.4725  164.9310 C.ar    1  UNL1       -0.0026
     16 C         138.1639  139.5450  165.5984 C.ar    1  UNL1       -0.0003
     17 C         138.2841  139.2627  167.0667 C.ar    1  UNL1       -0.0000
     18 C         139.3759  139.9081  167.8676 C.ar    1  UNL1       -0.0003
     19 C         140.3476  140.8356  167.2001 C.ar    1  UNL1       -0.0026
     20 C         140.9554  143.5254  165.0809 C.3     1  UNL1        0.1312
     21 C         137.7645  143.9679  164.5596 C.3     1  UNL1        0.0718
     22 C         138.8750  144.4012  163.6492 C.ar    1  UNL1        0.1209
     23 N         138.7138  145.1141  162.3393 N.ar    1  UNL1       -0.2293
     24 C         140.0810  145.3512  161.7693 C.ar    1  UNL1        0.1188
     25 C         141.0870  144.7850  162.7270 C.ar    1  UNL1        0.0978
     26 N         140.3418  144.1978  163.8888 N.ar    1  UNL1       -0.3116
     27 C         143.2143  138.6871  156.5548 C.3     1  UNL1        0.1007
     28 C         142.8200  137.2755  156.2355 C.ar    1  UNL1        0.0129
     29 C         141.4284  136.7906  155.9559 C.ar    1  UNL1        0.0176
     30 C         141.4965  135.3164  155.6873 C.ar    1  UNL1        0.0799
     31 N         142.9303  134.8902  155.8008 N.ar    1  UNL1       -0.3038
     32 C         143.7482  136.1011  156.1396 C.ar    1  UNL1        0.0772
     33 C         143.4540  133.4978  155.6092 C.ar    1  UNL1        0.0640
     34 C         144.4540  132.9332  156.5742 C.ar    1  UNL1        0.0175
     35 C         144.9777  131.5407  156.3826 C.ar    1  UNL1        0.0053
     36 C         144.5015  130.7129  155.2260 C.ar    1  UNL1        0.0715
     37 C         143.5016  131.2775  154.2609 C.ar    1  UNL1        0.0053
     38 C         142.9778  132.6699  154.4525 C.ar    1  UNL1        0.0175
     39 C         145.0253  129.3204  155.0344 C.3     1  UNL1        0.4186
     40 F         145.5491  127.9280  154.8426 F       1  UNL1       -0.1659
     41 F         144.9894  129.1028  156.5180 F       1  UNL1       -0.1659
     42 F         145.0612  129.5381  153.5506 F       1  UNL1       -0.1659
@<TRIPOS>BOND
     1    21    22    1
     2    22    23   ar
     3    23    24   ar
     4    24    25   ar
     5    25    26   ar
     6    26    20    1
     7    20    13    1
     8    13     7    1
     9     7     8   am
    10     8     9    2
    11     8    10   am
    12    10     1    1
    13     1     2    1
    14     2     3    1
    15     3     4    1
    16     4    27    1
    17    27    28    1
    18    28    29   ar
    19    29    30   ar
    20    30    31   ar
    21    31    33    1
    22    33    34   ar
    23    34    35   ar
    24    35    36   ar
    25    36    39    1
    26    39    40    1
    27    39    41    1
    28    39    42    1
    29    36    37   ar
    30    37    38   ar
    31    31    32   ar
    32     4     5    1
    33     5     6    1
    34    13    14    1
    35    14    15   ar
    36    15    16   ar
    37    16    17   ar
    38    17    18   ar
    39    18    19   ar
    40    26    22   ar
    41     6     1    1
    42    19    14   ar
    43    32    28   ar
    44    38    33   ar
    45     7    11    1
    46    10    12    1
@<TRIPOS>MOLECULE
*****
 42 46 0 0 0
SMALL
GASTEIGER

@<TRIPOS>ATOM
      1 C         138.5676  142.9086  161.3521 C.3     1  UNL1        0.0758
      2 C         138.2435  142.2617  160.0382 C.3     1  UNL1        0.0370
      3 C         138.9113  142.7385  158.7826 C.3     1  UNL1        0.0741
      4 N         139.9032  143.8622  158.8408 N.3     1  UNL1       -0.2688
      5 C         140.2273  144.5091  160.1548 C.3     1  UNL1        0.0741
      6 C         139.5595  144.0323  161.4104 C.3     1  UNL1        0.0370
      7 N         137.9589  141.0315  164.7954 N.am    1  UNL1       -0.2849
      8 C         138.6267  141.5083  163.5397 C.2     1  UNL1        0.3010
      9 O         140.0215  141.0615  163.2160 O.2     1  UNL1       -0.2528
     10 N         137.8997  142.4319  162.6078 N.am    1  UNL1       -0.2905
     11 H         137.0434  141.3248  165.0079 H       1  UNL1        0.1513
     12 H         136.9843  142.7251  162.8203 H       1  UNL1        0.1509
     13 C         138.6859  140.1080  165.7273 C.3     1  UNL1        0.1181
     14 C         139.3864  140.6588  166.9339 C.ar    1  UNL1       -0.0026
     15 C         140.2014  141.9130  166.8205 C.ar    1  UNL1       -0.0026
     16 C         140.9019  142.4639  168.0271 C.ar    1  UNL1       -0.0003
     17 C         140.7874  141.7606  169.3470 C.ar    1  UNL1       -0.0000
     18 C         139.9725  140.5064  169.4604 C.ar    1  UNL1       -0.0003
     19 C         139.2719  139.9555  168.2538 C.ar    1  UNL1       -0.0026
     20 C         138.7124  138.6336  165.4527 C.3     1  UNL1        0.1312
     21 C         138.0802  137.9855  162.3174 C.3     1  UNL1        0.0718
     22 C         139.3920  137.7759  163.0139 C.ar    1  UNL1        0.1209
     23 N         140.6436  137.2317  162.3915 N.ar    1  UNL1       -0.2293
     24 C         141.7077  137.1932  163.4481 C.ar    1  UNL1        0.1188
     25 C         141.1137  137.7137  164.7234 C.ar    1  UNL1        0.0978
     26 N         139.6826  138.0738  164.4550 N.ar    1  UNL1       -0.3116
     27 C         140.5711  144.3390  157.5851 C.3     1  UNL1        0.1007
     28 C         139.8651  145.3050  156.6805 C.ar    1  UNL1        0.0129
     29 C         138.7850  144.9638  155.6972 C.ar    1  UNL1        0.0176
     30 C         138.3676  146.2298  155.0094 C.ar    1  UNL1        0.0799
     31 N         139.1898  147.3534  155.5676 N.ar    1  UNL1       -0.3038
     32 C         140.1153  146.7818  156.6004 C.ar    1  UNL1        0.0772
     33 C         139.1019  148.7954  155.1638 C.ar    1  UNL1        0.0640
     34 C         139.6584  149.2398  153.8437 C.ar    1  UNL1        0.0175
     35 C         139.5705  150.6818  153.4399 C.ar    1  UNL1        0.0053
     36 C         138.9261  151.6792  154.3563 C.ar    1  UNL1        0.0715
     37 C         138.3696  151.2348  155.6764 C.ar    1  UNL1        0.0053
     38 C         138.4575  149.7929  156.0802 C.ar    1  UNL1        0.0175
     39 C         138.8383  153.1212  153.9525 C.3     1  UNL1        0.4186
     40 F         138.7503  154.5632  153.5488 F       1  UNL1       -0.1659
     41 F         139.1698  152.7455  152.5387 F       1  UNL1       -0.1659
     42 F         138.5066  153.4969  155.3664 F       1  UNL1       -0.1659
@<TRIPOS>BOND
     1    21    22    1
     2    22    23   ar
     3    23    24   ar
     4    24    25   ar
     5    25    26   ar
     6    26    20    1
     7    20    13    1
     8    13     7    1
     9     7     8   am
    10     8     9    2
    11     8    10   am
    12    10     1    1
    13     1     2    1
    14     2     3    1
    15     3     4    1
    16     4    27    1
    17    27    28    1
    18    28    29   ar
    19    29    30   ar
    20    30    31   ar
    21    31    33    1
    22    33    34   ar
    23    34    35   ar
    24    35    36   ar
    25    36    39    1
    26    39    40    1
    27    39    41    1
    28    39    42    1
    29    36    37   ar
    30    37    38   ar
    31    31    32   ar
    32     4     5    1
    33     5     6    1
    34    13    14    1
    35    14    15   ar
    36    15    16   ar
    37    16    17   ar
    38    17    18   ar
    39    18    19   ar
    40    26    22   ar
    41     6     1    1
    42    19    14   ar
    43    32    28   ar
    44    38    33   ar
    45     7    11    1
    46    10    12    1
@<TRIPOS>MOLECULE
*****
 42 46 0 0 0
SMALL
GASTEIGER

@<TRIPOS>ATOM
      1 C         141.4665  138.2989  161.9296 C.3     1  UNL1        0.0758
      2 C         140.4193  138.5225  160.8792 C.3     1  UNL1        0.0370
      3 C         140.7805  138.4226  159.4269 C.3     1  UNL1        0.0741
      4 N         142.1889  138.0990  159.0248 N.3     1  UNL1       -0.2688
      5 C         143.2361  137.8753  160.0752 C.3     1  UNL1        0.0741
      6 C         142.8749  137.9753  161.5275 C.3     1  UNL1        0.0370
      7 N         140.6650  139.8422  165.4970 N.am    1  UNL1       -0.2849
      8 C         141.0262  139.7422  164.0445 C.2     1  UNL1        0.3010
      9 O         141.3082  140.9858  163.2546 O.2     1  UNL1       -0.2528
     10 N         141.1053  138.3988  163.3821 N.am    1  UNL1       -0.2905
     11 H         140.4799  139.0260  166.0155 H       1  UNL1        0.1513
     12 H         140.9202  137.5826  163.9006 H       1  UNL1        0.1509
     13 C         140.5859  141.1856  166.1595 C.3     1  UNL1        0.1181
     14 C         139.6452  142.2279  165.6315 C.ar    1  UNL1       -0.0026
     15 C         138.3889  141.8148  164.9236 C.ar    1  UNL1       -0.0026
     16 C         137.4483  142.8571  164.3956 C.ar    1  UNL1       -0.0003
     17 C         137.7638  144.3124  164.5756 C.ar    1  UNL1       -0.0000
     18 C         139.0200  144.7255  165.2835 C.ar    1  UNL1       -0.0003
     19 C         139.9608  143.6832  165.8115 C.ar    1  UNL1       -0.0026
     20 C         141.4474  141.4867  167.3499 C.3     1  UNL1        0.1312
     21 C         140.4389  143.6831  169.5427 C.3     1  UNL1        0.0718
     22 C         140.4844  142.1968  169.7401 C.ar    1  UNL1        0.1209
     23 N         140.0743  141.4592  170.9802 N.ar    1  UNL1       -0.2293
     24 C         140.2844  139.9937  170.7386 C.ar    1  UNL1        0.1188
     25 C         140.8244  139.8257  169.3493 C.ar    1  UNL1        0.0978
     26 N         140.9480  141.1873  168.7322 N.ar    1  UNL1       -0.3116
     27 C         142.5501  137.9991  157.5723 C.3     1  UNL1        0.1007
     28 C         142.3786  136.6987  156.8446 C.ar    1  UNL1        0.0129
     29 C         141.2769  136.3653  155.8828 C.ar    1  UNL1        0.0176
     30 C         141.4961  134.9640  155.3946 C.ar    1  UNL1        0.0799
     31 N         142.7332  134.4313  156.0548 N.ar    1  UNL1       -0.3038
     32 C         143.2786  135.5035  156.9509 C.ar    1  UNL1        0.0772
     33 C         143.3217  133.0662  155.8540 C.ar    1  UNL1        0.0640
     34 C         143.0998  132.3364  154.5626 C.ar    1  UNL1        0.0175
     35 C         143.6882  130.9713  154.3618 C.ar    1  UNL1        0.0053
     36 C         144.4985  130.3361  155.4525 C.ar    1  UNL1        0.0715
     37 C         144.7204  131.0659  156.7441 C.ar    1  UNL1        0.0053
     38 C         144.1320  132.4310  156.9448 C.ar    1  UNL1        0.0175
     39 C         145.0869  128.9710  155.2518 C.3     1  UNL1        0.4186
     40 F         145.6753  127.6059  155.0511 F       1  UNL1       -0.1659
     41 F         145.0565  129.1764  153.7662 F       1  UNL1       -0.1659
     42 F         145.1173  128.7656  156.7374 F       1  UNL1       -0.1659
@<TRIPOS>BOND
     1    21    22    1
     2    22    23   ar
     3    23    24   ar
     4    24    25   ar
     5    25    26   ar
     6    26    20    1
     7    20    13    1
     8    13     7    1
     9     7     8   am
    10     8     9    2
    11     8    10   am
    12    10     1    1
    13     1     2    1
    14     2     3    1
    15     3     4    1
    16     4    27    1
    17    27    28    1
    18    28    29   ar
    19    29    30   ar
    20    30    31   ar
    21    31    33    1
    22    33    34   ar
    23    34    35   ar
    24    35    36   ar
    25    36    39    1
    26    39    40    1
    27    39    41    1
    28    39    42    1
    29    36    37   ar
    30    37    38   ar
    31    31    32   ar
    32     4     5    1
    33     5     6    1
    34    13    14    1
    35    14    15   ar
    36    15    16   ar
    37    16    17   ar
    38    17    18   ar
    39    18    19   ar
    40    26    22   ar
    41     6     1    1
    42    19    14   ar
    43    32    28   ar
    44    38    33   ar
    45     7    11    1
    46    10    12    1
@<TRIPOS>MOLECULE
*****
 42 46 0 0 0
SMALL
GASTEIGER

@<TRIPOS>ATOM
      1 C         140.1737  143.7301  161.4768 C.3     1  UNL1        0.0758
      2 C         141.2729  144.5690  160.8952 C.3     1  UNL1        0.0370
      3 C         141.4143  144.6930  159.4071 C.3     1  UNL1        0.0741
      4 N         140.4565  143.9783  158.5005 N.3     1  UNL1       -0.2688
      5 C         139.3574  143.1394  159.0821 C.3     1  UNL1        0.0741
      6 C         139.2160  143.0154  160.5702 C.3     1  UNL1        0.0370
      7 N         140.3507  142.2351  165.1489 N.am    1  UNL1       -0.2849
      8 C         140.4921  142.3592  163.6607 C.2     1  UNL1        0.3010
      9 O         141.0934  141.2365  162.8682 O.2     1  UNL1       -0.2528
     10 N         140.0323  143.6060  162.9650 N.am    1  UNL1       -0.2905
     11 H         139.9560  142.9719  165.6690 H       1  UNL1        0.1513
     12 H         139.6376  144.3429  163.4851 H       1  UNL1        0.1509
     13 C         140.8105  140.9883  165.8445 C.3     1  UNL1        0.1181
     14 C         139.8932  139.8061  165.9491 C.ar    1  UNL1       -0.0026
     15 C         138.8007  139.7930  166.9769 C.ar    1  UNL1       -0.0026
     16 C         137.8835  138.6107  167.0814 C.ar    1  UNL1       -0.0003
     17 C         138.0586  137.4416  166.1581 C.ar    1  UNL1       -0.0000
     18 C         139.1511  137.4547  165.1303 C.ar    1  UNL1       -0.0003
     19 C         140.0684  138.6369  165.0258 C.ar    1  UNL1       -0.0026
     20 C         142.1876  140.9237  166.4357 C.3     1  UNL1        0.1312
     21 C         143.6210  137.9980  166.2481 C.3     1  UNL1        0.0718
     22 C         144.0188  139.2254  165.4831 C.ar    1  UNL1        0.1209
     23 N         145.1452  139.3235  164.4975 N.ar    1  UNL1       -0.2293
     24 C         145.1825  140.7289  163.9746 C.ar    1  UNL1        0.1188
     25 C         144.0791  141.4994  164.6370 C.ar    1  UNL1        0.0978
     26 N         143.3599  140.5702  165.5693 N.ar    1  UNL1       -0.3116
     27 C         140.5980  144.1024  157.0123 C.3     1  UNL1        0.1007
     28 C         139.8381  145.1632  156.2726 C.ar    1  UNL1        0.0129
     29 C         138.5903  144.9540  155.4669 C.ar    1  UNL1        0.0176
     30 C         138.1735  146.2809  154.9050 C.ar    1  UNL1        0.0799
     31 N         139.1637  147.3101  155.3635 N.ar    1  UNL1       -0.3038
     32 C         140.1924  146.6193  156.2087 C.ar    1  UNL1        0.0772
     33 C         139.1309  148.7732  155.0345 C.ar    1  UNL1        0.0640
     34 C         138.4794  149.7398  155.9785 C.ar    1  UNL1        0.0175
     35 C         138.4466  151.2029  155.6496 C.ar    1  UNL1        0.0053
     36 C         139.0653  151.6994  154.3766 C.ar    1  UNL1        0.0715
     37 C         139.7169  150.7329  153.4326 C.ar    1  UNL1        0.0053
     38 C         139.7497  149.2698  153.7615 C.ar    1  UNL1        0.0175
     39 C         139.0325  153.1625  154.0477 C.3     1  UNL1        0.4186
     40 F         138.9996  154.6257  153.7188 F       1  UNL1       -0.1659
     41 F         139.5763  152.8675  152.6812 F       1  UNL1       -0.1659
     42 F         138.4886  153.4576  155.4142 F       1  UNL1       -0.1659
@<TRIPOS>BOND
     1    21    22    1
     2    22    23   ar
     3    23    24   ar
     4    24    25   ar
     5    25    26   ar
     6    26    20    1
     7    20    13    1
     8    13     7    1
     9     7     8   am
    10     8     9    2
    11     8    10   am
    12    10     1    1
    13     1     2    1
    14     2     3    1
    15     3     4    1
    16     4    27    1
    17    27    28    1
    18    28    29   ar
    19    29    30   ar
    20    30    31   ar
    21    31    33    1
    22    33    34   ar
    23    34    35   ar
    24    35    36   ar
    25    36    39    1
    26    39    40    1
    27    39    41    1
    28    39    42    1
    29    36    37   ar
    30    37    38   ar
    31    31    32   ar
    32     4     5    1
    33     5     6    1
    34    13    14    1
    35    14    15   ar
    36    15    16   ar
    37    16    17   ar
    38    17    18   ar
    39    18    19   ar
    40    26    22   ar
    41     6     1    1
    42    19    14   ar
    43    32    28   ar
    44    38    33   ar
    45     7    11    1
    46    10    12    1
@<TRIPOS>MOLECULE
*****
 42 46 0 0 0
SMALL
GASTEIGER

@<TRIPOS>ATOM
      1 C         142.4930  143.1939  157.7920 C.3     1  UNL1        0.0758
      2 C         143.6484  142.2737  157.5309 C.3     1  UNL1        0.0370
      3 C         143.5391  141.2133  156.4757 C.3     1  UNL1        0.0741
      4 N         142.2743  141.0731  155.6815 N.3     1  UNL1       -0.2688
      5 C         141.1188  141.9933  155.9427 C.3     1  UNL1        0.0741
      6 C         141.2282  143.0537  156.9979 C.3     1  UNL1        0.0370
      7 N         142.1059  145.0910  161.2564 N.am    1  UNL1       -0.2849
      8 C         141.9966  144.0305  160.2011 C.2     1  UNL1        0.3010
      9 O         141.2814  142.7462  160.4997 O.2     1  UNL1       -0.2528
     10 N         142.6024  144.2544  158.8473 N.am    1  UNL1       -0.2905
     11 H         142.5753  145.9339  161.0604 H       1  UNL1        0.1513
     12 H         143.0718  145.0973  158.6513 H       1  UNL1        0.1509
     13 C         141.5001  144.8671  162.6102 C.3     1  UNL1        0.1181
     14 C         142.3076  144.2188  163.6953 C.ar    1  UNL1       -0.0026
     15 C         141.7385  143.0645  164.4660 C.ar    1  UNL1       -0.0026
     16 C         142.5460  142.4161  165.5510 C.ar    1  UNL1       -0.0003
     17 C         143.9227  142.9219  165.8655 C.ar    1  UNL1       -0.0000
     18 C         144.4918  144.0761  165.0949 C.ar    1  UNL1       -0.0003
     19 C         143.6843  144.7246  164.0097 C.ar    1  UNL1       -0.0026
     20 C         140.0867  145.2917  162.8789 C.3     1  UNL1        0.1312
     21 C         138.5283  145.0391  165.7350 C.3     1  UNL1        0.0718
     22 C         138.3332  144.1503  164.5425 C.ar    1  UNL1        0.1209
     23 N         137.3874  142.9895  164.4535 N.ar    1  UNL1       -0.2293
     24 C         137.5193  142.3881  163.0856 C.ar    1  UNL1        0.1188
     25 C         138.5465  143.1774  162.3293 C.ar    1  UNL1        0.0978
     26 N         139.0495  144.2665  163.2297 N.ar    1  UNL1       -0.3116
     27 C         142.1649  140.0127  154.6263 C.3     1  UNL1        0.1007
     28 C         141.7351  138.6249  154.9993 C.ar    1  UNL1        0.0129
     29 C         140.3212  138.1290  155.0705 C.ar    1  UNL1        0.0176
     30 C         140.3559  136.6870  155.4819 C.ar    1  UNL1        0.0799
     31 N         141.7913  136.2915  155.6649 N.ar    1  UNL1       -0.3038
     32 C         142.6436  137.4892  155.3666 C.ar    1  UNL1        0.0772
     33 C         142.2872  134.9364  156.0742 C.ar    1  UNL1        0.0640
     34 C         143.3370  134.8118  157.1382 C.ar    1  UNL1        0.0175
     35 C         143.8329  133.4566  157.5476 C.ar    1  UNL1        0.0053
     36 C         143.2790  132.2260  156.8929 C.ar    1  UNL1        0.0715
     37 C         142.2291  132.3505  155.8289 C.ar    1  UNL1        0.0053
     38 C         141.7332  133.7057  155.4195 C.ar    1  UNL1        0.0175
     39 C         143.7749  130.8709  157.3023 C.3     1  UNL1        0.4186
     40 F         144.2708  129.5157  157.7117 F       1  UNL1       -0.1659
     41 F         142.5476  130.2432  156.7110 F       1  UNL1       -0.1659
     42 F         145.0022  131.4986  157.8936 F       1  UNL1       -0.1659
@<TRIPOS>BOND
     1    21    22    1
     2    22    23   ar
     3    23    24   ar
     4    24    25   ar
     5    25    26   ar
     6    26    20    1
     7    20    13    1
     8    13     7    1
     9     7     8   am
    10     8     9    2
    11     8    10   am
    12    10     1    1
    13     1     2    1
    14     2     3    1
    15     3     4    1
    16     4    27    1
    17    27    28    1
    18    28    29   ar
    19    29    30   ar
    20    30    31   ar
    21    31    33    1
    22    33    34   ar
    23    34    35   ar
    24    35    36   ar
    25    36    39    1
    26    39    40    1
    27    39    41    1
    28    39    42    1
    29    36    37   ar
    30    37    38   ar
    31    31    32   ar
    32     4     5    1
    33     5     6    1
    34    13    14    1
    35    14    15   ar
    36    15    16   ar
    37    16    17   ar
    38    17    18   ar
    39    18    19   ar
    40    26    22   ar
    41     6     1    1
    42    19    14   ar
    43    32    28   ar
    44    38    33   ar
    45     7    11    1
    46    10    12    1
@<TRIPOS>MOLECULE
*****
 42 46 0 0 0
SMALL
GASTEIGER

@<TRIPOS>ATOM
      1 C         141.1344  144.4779  157.9658 C.3     1  UNL1        0.0758
      2 C         140.0370  145.3870  157.4977 C.3     1  UNL1        0.0370
      3 C         139.1480  144.9680  156.3646 C.3     1  UNL1        0.0741
      4 N         139.3565  143.6398  155.6995 N.3     1  UNL1       -0.2688
      5 C         140.4538  142.7306  156.1675 C.3     1  UNL1        0.0741
      6 C         141.3428  143.1497  157.3007 C.3     1  UNL1        0.0370
      7 N         142.7484  144.6897  161.5853 N.am    1  UNL1       -0.2849
      8 C         141.8593  144.2706  160.4521 C.2     1  UNL1        0.3010
      9 O         140.8063  143.2253  160.6720 O.2     1  UNL1       -0.2528
     10 N         142.0234  144.8969  159.0990 N.am    1  UNL1       -0.2905
     11 H         143.4395  145.3757  161.4409 H       1  UNL1        0.1513
     12 H         142.7145  145.5830  158.9547 H       1  UNL1        0.1509
     13 C         142.5843  144.0634  162.9383 C.3     1  UNL1        0.1181
     14 C         143.3077  142.7916  163.2687 C.ar    1  UNL1       -0.0026
     15 C         144.7660  142.8273  163.6185 C.ar    1  UNL1       -0.0026
     16 C         145.4894  141.5556  163.9489 C.ar    1  UNL1       -0.0003
     17 C         144.7547  140.2480  163.9296 C.ar    1  UNL1       -0.0000
     18 C         143.2965  140.2122  163.5799 C.ar    1  UNL1       -0.0003
     19 C         142.5730  141.4840  163.2494 C.ar    1  UNL1       -0.0026
     20 C         141.6969  144.7088  163.9610 C.3     1  UNL1        0.1312
     21 C         140.2456  142.7160  166.0992 C.3     1  UNL1        0.0718
     22 C         139.5681  143.4590  164.9862 C.ar    1  UNL1        0.1209
     23 N         138.1045  143.4163  164.6605 N.ar    1  UNL1       -0.2293
     24 C         137.8670  144.3060  163.4764 C.ar    1  UNL1        0.1188
     25 C         139.1838  144.8984  163.0702 C.ar    1  UNL1        0.0978
     26 N         140.2352  144.3750  164.0033 N.ar    1  UNL1       -0.3116
     27 C         138.4674  143.2207  154.5662 C.3     1  UNL1        0.1007
     28 C         137.4703  142.1176  154.7636 C.ar    1  UNL1        0.0129
     29 C         137.6391  140.6898  154.3363 C.ar    1  UNL1        0.0176
     30 C         136.4025  139.9384  154.7315 C.ar    1  UNL1        0.0799
     31 N         135.4694  140.9019  155.4031 N.ar    1  UNL1       -0.3038
     32 C         136.1294  142.2488  155.4229 C.ar    1  UNL1        0.0772
     33 C         134.1143  140.5758  155.9574 C.ar    1  UNL1        0.0640
     34 C         132.8877  141.1875  155.3483 C.ar    1  UNL1        0.0175
     35 C         131.5326  140.8614  155.9027 C.ar    1  UNL1        0.0053
     36 C         131.4041  139.9236  157.0662 C.ar    1  UNL1        0.0715
     37 C         132.6307  139.3119  157.6755 C.ar    1  UNL1        0.0053
     38 C         133.9858  139.6380  157.1211 C.ar    1  UNL1        0.0175
     39 C         130.0490  139.5975  157.6206 C.3     1  UNL1        0.4186
     40 F         128.6939  139.2715  158.1749 F       1  UNL1       -0.1659
     41 F         130.6678  138.5836  158.5366 F       1  UNL1       -0.1659
     42 F         129.4302  140.6115  156.7046 F       1  UNL1       -0.1659
@<TRIPOS>BOND
     1    21    22    1
     2    22    23   ar
     3    23    24   ar
     4    24    25   ar
     5    25    26   ar
     6    26    20    1
     7    20    13    1
     8    13     7    1
     9     7     8   am
    10     8     9    2
    11     8    10   am
    12    10     1    1
    13     1     2    1
    14     2     3    1
    15     3     4    1
    16     4    27    1
    17    27    28    1
    18    28    29   ar
    19    29    30   ar
    20    30    31   ar
    21    31    33    1
    22    33    34   ar
    23    34    35   ar
    24    35    36   ar
    25    36    39    1
    26    39    40    1
    27    39    41    1
    28    39    42    1
    29    36    37   ar
    30    37    38   ar
    31    31    32   ar
    32     4     5    1
    33     5     6    1
    34    13    14    1
    35    14    15   ar
    36    15    16   ar
    37    16    17   ar
    38    17    18   ar
    39    18    19   ar
    40    26    22   ar
    41     6     1    1
    42    19    14   ar
    43    32    28   ar
    44    38    33   ar
    45     7    11    1
    46    10    12    1
@<TRIPOS>MOLECULE
*****
 42 46 0 0 0
SMALL
GASTEIGER

@<TRIPOS>ATOM
      1 C         138.5224  142.2777  159.5539 C.3     1  UNL1        0.0758
      2 C         138.0796  140.9130  159.1162 C.3     1  UNL1        0.0370
      3 C         138.5007  140.3812  157.7784 C.3     1  UNL1        0.0741
      4 N         139.3644  141.2141  156.8782 N.3     1  UNL1       -0.2688
      5 C         139.8071  142.5787  157.3159 C.3     1  UNL1        0.0741
      6 C         139.3861  143.1105  158.6537 C.3     1  UNL1        0.0370
      7 N         138.5474  143.1165  163.4328 N.am    1  UNL1       -0.2849
      8 C         138.9684  142.5847  162.0949 C.2     1  UNL1        0.3010
      9 O         140.2565  141.8279  161.9603 O.2     1  UNL1       -0.2528
     10 N         138.1013  142.8096  160.8918 N.am    1  UNL1       -0.2905
     11 H         137.7020  143.6132  163.5213 H       1  UNL1        0.1513
     12 H         137.2559  143.3062  160.9802 H       1  UNL1        0.1509
     13 C         139.4144  142.8916  164.6360 C.3     1  UNL1        0.1181
     14 C         139.2215  141.6675  165.4811 C.ar    1  UNL1       -0.0026
     15 C         138.2679  140.5959  165.0426 C.ar    1  UNL1       -0.0026
     16 C         138.0750  139.3719  165.8877 C.ar    1  UNL1       -0.0003
     17 C         138.8357  139.2193  167.1715 C.ar    1  UNL1       -0.0000
     18 C         139.7893  140.2908  167.6101 C.ar    1  UNL1       -0.0003
     19 C         139.9823  141.5150  166.7649 C.ar    1  UNL1       -0.0026
     20 C         140.4744  143.8908  164.9940 C.3     1  UNL1        0.1312
     21 C         140.7406  145.7356  162.3153 C.3     1  UNL1        0.0718
     22 C         141.8191  144.8755  162.9042 C.ar    1  UNL1        0.1209
     23 N         143.2094  144.7124  162.3653 N.ar    1  UNL1       -0.2293
     24 C         143.9463  143.7636  163.2636 C.ar    1  UNL1        0.1188
     25 C         143.0114  143.3404  164.3576 C.ar    1  UNL1        0.0978
     26 N         141.6968  144.0276  164.1355 N.ar    1  UNL1       -0.3116
     27 C         139.7854  140.6822  155.5403 C.3     1  UNL1        0.1007
     28 C         139.9128  139.2028  155.3276 C.ar    1  UNL1        0.0129
     29 C         138.8682  138.3041  154.7352 C.ar    1  UNL1        0.0176
     30 C         139.4170  136.9083  154.7114 C.ar    1  UNL1        0.0799
     31 N         140.8009  136.9444  155.2892 N.ar    1  UNL1       -0.3038
     32 C         141.1073  138.3625  155.6700 C.ar    1  UNL1        0.0772
     33 C         141.7173  135.7688  155.4567 C.ar    1  UNL1        0.0640
     34 C         141.5578  134.5625  154.5795 C.ar    1  UNL1        0.0175
     35 C         142.4743  133.3869  154.7471 C.ar    1  UNL1        0.0053
     36 C         143.5502  133.4176  155.7917 C.ar    1  UNL1        0.0715
     37 C         143.7097  134.6238  156.6689 C.ar    1  UNL1        0.0053
     38 C         142.7932  135.7994  156.5014 C.ar    1  UNL1        0.0175
     39 C         144.4666  132.2420  155.9592 C.3     1  UNL1        0.4186
     40 F         145.3830  131.0663  156.1266 F       1  UNL1       -0.1659
     41 F         144.9237  132.7865  157.2800 F       1  UNL1       -0.1659
     42 F         144.0095  131.6974  154.6383 F       1  UNL1       -0.1659
@<TRIPOS>BOND
     1    21    22    1
     2    22    23   ar
     3    23    24   ar
     4    24    25   ar
     5    25    26   ar
     6    26    20    1
     7    20    13    1
     8    13     7    1
     9     7     8   am
    10     8     9    2
    11     8    10   am
    12    10     1    1
    13     1     2    1
    14     2     3    1
    15     3     4    1
    16     4    27    1
    17    27    28    1
    18    28    29   ar
    19    29    30   ar
    20    30    31   ar
    21    31    33    1
    22    33    34   ar
    23    34    35   ar
    24    35    36   ar
    25    36    39    1
    26    39    40    1
    27    39    41    1
    28    39    42    1
    29    36    37   ar
    30    37    38   ar
    31    31    32   ar
    32     4     5    1
    33     5     6    1
    34    13    14    1
    35    14    15   ar
    36    15    16   ar
    37    16    17   ar
    38    17    18   ar
    39    18    19   ar
    40    26    22   ar
    41     6     1    1
    42    19    14   ar
    43    32    28   ar
    44    38    33   ar
    45     7    11    1
    46    10    12    1
@<TRIPOS>MOLECULE
*****
 42 46 0 0 0
SMALL
GASTEIGER

@<TRIPOS>ATOM
      1 C         141.1131  139.6784  158.7905 C.3     1  UNL1        0.0758
      2 C         142.4881  140.1318  158.3984 C.3     1  UNL1        0.0370
      3 C         143.2300  139.4192  157.3067 C.3     1  UNL1        0.0741
      4 N         142.5968  138.2531  156.6071 N.3     1  UNL1       -0.2688
      5 C         141.2218  137.7997  156.9992 C.3     1  UNL1        0.0741
      6 C         140.4800  138.5123  158.0909 C.3     1  UNL1        0.0370
      7 N         140.0009  140.8715  162.4085 N.am    1  UNL1       -0.2849
      8 C         140.7428  140.1588  161.3167 C.2     1  UNL1        0.3010
      9 O         141.8563  139.2141  161.6596 O.2     1  UNL1       -0.2528
     10 N         140.3712  140.3910  159.8822 N.am    1  UNL1       -0.2905
     11 H         139.2701  141.4915  162.1834 H       1  UNL1        0.1513
     12 H         139.6404  141.0111  159.6572 H       1  UNL1        0.1509
     13 C         140.3725  140.6393  163.8430 C.3     1  UNL1        0.1181
     14 C         139.6052  139.6468  164.6653 C.ar    1  UNL1       -0.0026
     15 C         139.6146  138.1947  164.2895 C.ar    1  UNL1       -0.0026
     16 C         138.8473  137.2022  165.1118 C.ar    1  UNL1       -0.0003
     17 C         138.0706  137.6618  166.3099 C.ar    1  UNL1       -0.0000
     18 C         138.0612  139.1139  166.6858 C.ar    1  UNL1       -0.0003
     19 C         138.8285  140.1064  165.8635 C.ar    1  UNL1       -0.0026
     20 C         141.5114  141.3996  164.4553 C.3     1  UNL1        0.1312
     21 C         142.9802  138.8458  165.8590 C.3     1  UNL1        0.0718
     22 C         143.5992  139.7809  164.8627 C.ar    1  UNL1        0.1209
     23 N         145.0019  139.7063  164.3368 N.ar    1  UNL1       -0.2293
     24 C         145.1937  140.8341  163.3665 C.ar    1  UNL1        0.1188
     25 C         143.9095  141.6056  163.2928 C.ar    1  UNL1        0.0978
     26 N         142.9240  140.9548  164.2175 N.ar    1  UNL1       -0.3116
     27 C         143.3387  137.5405  155.5153 C.3     1  UNL1        0.1007
     28 C         143.2303  136.0502  155.3839 C.ar    1  UNL1        0.0129
     29 C         142.6271  135.3087  154.2280 C.ar    1  UNL1        0.0176
     30 C         142.7300  133.8400  154.5150 C.ar    1  UNL1        0.0799
     31 N         143.3968  133.6739  155.8484 N.ar    1  UNL1       -0.3038
     32 C         143.7059  135.0399  156.3854 C.ar    1  UNL1        0.0772
     33 C         143.7010  132.3706  156.5258 C.ar    1  UNL1        0.0640
     34 C         144.8419  132.2774  157.4950 C.ar    1  UNL1        0.0175
     35 C         145.1460  130.9741  158.1724 C.ar    1  UNL1        0.0053
     36 C         144.3093  129.7640  157.8805 C.ar    1  UNL1        0.0715
     37 C         143.1683  129.8571  156.9113 C.ar    1  UNL1        0.0053
     38 C         142.8641  131.1604  156.2339 C.ar    1  UNL1        0.0175
     39 C         144.6135  128.4607  158.5579 C.3     1  UNL1        0.4186
     40 F         144.9176  127.1574  159.2354 F       1  UNL1       -0.1659
     41 F         145.3215  127.9847  157.3242 F       1  UNL1       -0.1659
     42 F         143.9054  128.9366  159.7917 F       1  UNL1       -0.1659
@<TRIPOS>BOND
     1    21    22    1
     2    22    23   ar
     3    23    24   ar
     4    24    25   ar
     5    25    26   ar
     6    26    20    1
     7    20    13    1
     8    13     7    1
     9     7     8   am
    10     8     9    2
    11     8    10   am
    12    10     1    1
    13     1     2    1
    14     2     3    1
    15     3     4    1
    16     4    27    1
    17    27    28    1
    18    28    29   ar
    19    29    30   ar
    20    30    31   ar
    21    31    33    1
    22    33    34   ar
    23    34    35   ar
    24    35    36   ar
    25    36    39    1
    26    39    40    1
    27    39    41    1
    28    39    42    1
    29    36    37   ar
    30    37    38   ar
    31    31    32   ar
    32     4     5    1
    33     5     6    1
    34    13    14    1
    35    14    15   ar
    36    15    16   ar
    37    16    17   ar
    38    17    18   ar
    39    18    19   ar
    40    26    22   ar
    41     6     1    1
    42    19    14   ar
    43    32    28   ar
    44    38    33   ar
    45     7    11    1
    46    10    12    1
@<TRIPOS>MOLECULE
*****
 42 46 0 0 0
SMALL
GASTEIGER

@<TRIPOS>ATOM
      1 C         143.2845  139.7123  160.9154 C.3     1  UNL1        0.0758
      2 C         142.8596  138.3091  160.5987 C.3     1  UNL1        0.0370
      3 C         142.8371  137.8354  159.1756 C.3     1  UNL1        0.0741
      4 N         143.2397  138.7650  158.0693 N.3     1  UNL1       -0.2688
      5 C         143.6646  140.1682  158.3861 C.3     1  UNL1        0.0741
      6 C         143.6870  140.6419  159.8091 C.3     1  UNL1        0.0370
      7 N         142.0509  140.7565  164.5401 N.am    1  UNL1       -0.2849
      8 C         142.0285  140.2828  163.1170 C.2     1  UNL1        0.3010
      9 O         140.7275  139.9058  162.4725 O.2     1  UNL1       -0.2528
     10 N         143.3069  140.1860  162.3385 N.am    1  UNL1       -0.2905
     11 H         142.9047  141.0039  164.9632 H       1  UNL1        0.1513
     12 H         144.1608  140.4334  162.7615 H       1  UNL1        0.1509
     13 C         140.7724  140.8533  165.3186 C.3     1  UNL1        0.1181
     14 C         139.8294  141.9936  165.0732 C.ar    1  UNL1       -0.0026
     15 C         140.2799  143.4042  165.3124 C.ar    1  UNL1       -0.0026
     16 C         139.3369  144.5446  165.0670 C.ar    1  UNL1       -0.0003
     17 C         137.9433  144.2743  164.5823 C.ar    1  UNL1       -0.0000
     18 C         137.4928  142.8638  164.3430 C.ar    1  UNL1       -0.0003
     19 C         138.4358  141.7233  164.5885 C.ar    1  UNL1       -0.0026
     20 C         140.4370  139.8097  166.3425 C.3     1  UNL1        0.1312
     21 C         143.4386  138.6026  166.7706 C.3     1  UNL1        0.0718
     22 C         142.5707  139.2058  167.8350 C.ar    1  UNL1        0.1209
     23 N         142.9302  139.3601  169.2831 N.ar    1  UNL1       -0.2293
     24 C         141.7726  140.0102  169.9813 C.ar    1  UNL1        0.1188
     25 C         140.6978  140.2578  168.9647 C.ar    1  UNL1        0.0978
     26 N         141.1910  139.7606  167.6383 N.ar    1  UNL1       -0.3116
     27 C         143.2172  138.2912  156.6462 C.3     1  UNL1        0.1007
     28 C         142.6561  136.9404  156.3142 C.ar    1  UNL1        0.0129
     29 C         141.3641  136.6735  155.6005 C.ar    1  UNL1        0.0176
     30 C         141.1979  135.1874  155.4828 C.ar    1  UNL1        0.0799
     31 N         142.3873  134.5358  156.1237 N.ar    1  UNL1       -0.3038
     32 C         143.2885  135.6192  156.6375 C.ar    1  UNL1        0.0772
     33 C         142.6325  133.0599  156.2318 C.ar    1  UNL1        0.0640
     34 C         141.8036  132.1012  155.4295 C.ar    1  UNL1        0.0175
     35 C         142.0487  130.6254  155.5376 C.ar    1  UNL1        0.0053
     36 C         143.1227  130.1082  156.4480 C.ar    1  UNL1        0.0715
     37 C         143.9517  131.0668  157.2504 C.ar    1  UNL1        0.0053
     38 C         143.7065  132.5427  157.1423 C.ar    1  UNL1        0.0175
     39 C         143.3678  128.6323  156.5561 C.3     1  UNL1        0.4186
     40 F         143.6131  127.1564  156.6642 F       1  UNL1       -0.1659
     41 F         141.8889  128.3917  156.6253 F       1  UNL1       -0.1659
     42 F         144.8469  128.8729  156.4869 F       1  UNL1       -0.1659
@<TRIPOS>BOND
     1    21    22    1
     2    22    23   ar
     3    23    24   ar
     4    24    25   ar
     5    25    26   ar
     6    26    20    1
     7    20    13    1
     8    13     7    1
     9     7     8   am
    10     8     9    2
    11     8    10   am
    12    10     1    1
    13     1     2    1
    14     2     3    1
    15     3     4    1
    16     4    27    1
    17    27    28    1
    18    28    29   ar
    19    29    30   ar
    20    30    31   ar
    21    31    33    1
    22    33    34   ar
    23    34    35   ar
    24    35    36   ar
    25    36    39    1
    26    39    40    1
    27    39    41    1
    28    39    42    1
    29    36    37   ar
    30    37    38   ar
    31    31    32   ar
    32     4     5    1
    33     5     6    1
    34    13    14    1
    35    14    15   ar
    36    15    16   ar
    37    16    17   ar
    38    17    18   ar
    39    18    19   ar
    40    26    22   ar
    41     6     1    1
    42    19    14   ar
    43    32    28   ar
    44    38    33   ar
    45     7    11    1
    46    10    12    1
