@<TRIPOS>MOLECULE
*****
 36 40 0 0 0
SMALL
GASTEIGER

@<TRIPOS>ATOM
      1 C         139.5095  142.3076  163.8470 C.ar    1  UNL1        0.0878
      2 C         138.7776  143.6167  163.8236 C.ar    1  UNL1        0.1543
      3 F         137.8547  143.9802  164.9488 F       1  UNL1       -0.2028
      4 C         138.9686  144.5623  162.6750 C.ar    1  UNL1        0.0356
      5 C         139.8915  144.1988  161.5498 C.ar    1  UNL1        0.0580
      6 C         140.0825  145.1445  160.4011 C.ar    1  UNL1        0.1996
      7 O         139.3506  146.4535  160.3778 O.2     1  UNL1       -0.2864
      8 C         141.0053  144.7810  159.2759 C.ar    1  UNL1        0.0701
      9 C         141.7372  143.4718  159.2993 C.ar    1  UNL1        0.0801
     10 N         141.5463  142.5262  160.4479 N.ar    1  UNL1       -0.3270
     11 C         140.6234  142.8897  161.5731 C.ar    1  UNL1        0.0750
     12 C         140.4324  141.9441  162.7217 C.ar    1  UNL1        0.0890
     13 CL        141.1643  140.6349  162.7451 Cl      1  UNL1       -0.0794
     14 C         139.5219  140.2969  167.1670 C.3     1  UNL1        0.0929
     15 C         138.5275  139.5166  166.3593 C.3     1  UNL1        0.0427
     16 C         138.4018  140.1749  165.0173 C.3     1  UNL1        0.0927
     17 N         139.3185  141.3619  164.9956 N.pl3   1  UNL1       -0.3033
     18 C         140.0108  141.4373  166.3242 C.3     1  UNL1        0.1104
     19 C         141.3736  139.6036  168.8524 C.2     1  UNL1        0.2245
     20 O         142.3653  139.5230  167.7298 O.2     1  UNL1       -0.2750
     21 N         139.9519  139.9905  168.5710 N.am    1  UNL1       -0.3042
     22 H         139.3011  140.0434  169.3078 H       1  UNL1        0.1494
     23 C         141.8036  139.2972  170.2564 C.3     1  UNL1        0.1114
     24 C         141.8261  140.3856  171.2884 C.3     1  UNL1        0.1401
     25 C         143.5576  142.8693  170.0710 C.3     1  UNL1        0.0754
     26 C         142.0928  142.8901  170.3931 C.ar    1  UNL1        0.1613
     27 N         141.1667  144.0560  170.2123 N.ar    1  UNL1       -0.1127
     28 N         139.7985  143.6350  170.6601 N.ar    1  UNL1       -0.0230
     29 N         139.8789  142.2088  171.1177 N.ar    1  UNL1       -0.0432
     30 N         141.2969  141.7484  170.9527 N.ar    1  UNL1       -0.2165
     31 C         141.1963  145.7266  158.1273 C.2     1  UNL1        0.0774
     32 O         142.5597  146.2746  157.8257 O.co2   1  UNL1       -0.5444
     33 O         140.0240  146.1241  157.2801 O.co2   1  UNL1       -0.5444
     34 C         142.2781  141.2171  160.4712 C.3     1  UNL1        0.0857
     35 C         142.3447  139.7597  160.1228 C.3     1  UNL1        0.0245
     36 C         143.4792  140.4071  160.8602 C.3     1  UNL1        0.0245
@<TRIPOS>UNITY_ATOM_ATTR
32 1
charge -1
@<TRIPOS>BOND
     1    25    26    1
     2    26    27   ar
     3    27    28   ar
     4    28    29   ar
     5    29    30   ar
     6    30    24    1
     7    24    23    1
     8    23    19    1
     9    19    20    2
    10    19    21   am
    11    21    14    1
    12    14    15    1
    13    15    16    1
    14    16    17    1
    15    17     1    1
    16     1     2   ar
    17     2     3    1
    18     2     4   ar
    19     4     5   ar
    20     5     6   ar
    21     6     7    2
    22     6     8   ar
    23     8    31    1
    24    31    32   ar
    25    31    33   ar
    26     8     9   ar
    27     9    10   ar
    28    10    34    1
    29    34    35    1
    30    35    36    1
    31    10    11   ar
    32    11    12   ar
    33    12    13    1
    34    17    18    1
    35    30    26   ar
    36    18    14    1
    37    12     1   ar
    38    11     5   ar
    39    36    34    1
    40    21    22    1
@<TRIPOS>MOLECULE
*****
 36 40 0 0 0
SMALL
GASTEIGER

@<TRIPOS>ATOM
      1 C         142.9748  139.4431  164.2123 C.ar    1  UNL1        0.0878
      2 C         143.9941  138.9912  165.2157 C.ar    1  UNL1        0.1543
      3 F         145.3281  138.4845  164.7535 F       1  UNL1       -0.2028
      4 C         143.6793  139.0460  166.6812 C.ar    1  UNL1        0.0356
      5 C         142.3453  139.5527  167.1434 C.ar    1  UNL1        0.0580
      6 C         142.0306  139.6074  168.6091 C.ar    1  UNL1        0.1996
      7 O         143.0499  139.1555  169.6124 O.2     1  UNL1       -0.2864
      8 C         140.6965  140.1141  169.0712 C.ar    1  UNL1        0.0701
      9 C         139.6772  140.5660  168.0678 C.ar    1  UNL1        0.0801
     10 N         139.9920  140.5112  166.6022 N.ar    1  UNL1       -0.3270
     11 C         141.3260  140.0046  166.1400 C.ar    1  UNL1        0.0750
     12 C         141.6408  139.9498  164.6745 C.ar    1  UNL1        0.0890
     13 CL        140.6214  140.4017  163.6710 Cl      1  UNL1       -0.0794
     14 C         143.4089  138.6509  160.4374 C.3     1  UNL1        0.0929
     15 C         144.1387  139.9571  160.5453 C.3     1  UNL1        0.0427
     16 C         144.0649  140.4127  161.9725 C.3     1  UNL1        0.0927
     17 N         143.2895  139.3883  162.7467 N.pl3   1  UNL1       -0.3033
     18 C         142.8841  138.2995  161.7979 C.3     1  UNL1        0.1104
     19 C         142.0801  138.1130  158.2706 C.2     1  UNL1        0.2245
     20 O         141.0999  139.1991  158.6021 O.2     1  UNL1       -0.2750
     21 N         143.2345  137.8389  159.1883 N.am    1  UNL1       -0.3042
     22 H         143.8778  137.1261  158.9708 H       1  UNL1        0.1494
     23 C         141.9057  137.3010  157.0216 C.3     1  UNL1        0.1114
     24 C         142.9951  136.3730  156.5721 C.3     1  UNL1        0.1401
     25 C         141.2209  134.6033  154.4818 C.3     1  UNL1        0.0754
     26 C         141.9714  134.0752  155.6683 C.ar    1  UNL1        0.1613
     27 N         142.0382  132.6410  156.1023 N.ar    1  UNL1       -0.1127
     28 N         142.8949  132.5680  157.3313 N.ar    1  UNL1       -0.0230
     29 N         143.3577  133.9572  157.6569 N.ar    1  UNL1       -0.0432
     30 N         142.7869  134.8887  156.6291 N.ar    1  UNL1       -0.2165
     31 C         140.3818  140.1689  170.5368 C.2     1  UNL1        0.0774
     32 O         141.1853  141.0530  171.4439 O.co2   1  UNL1       -0.5444
     33 O         139.2635  139.3396  171.0953 O.co2   1  UNL1       -0.5444
     34 C         138.9727  140.9631  165.5989 C.3     1  UNL1        0.0857
     35 C         138.3188  142.0635  164.8167 C.3     1  UNL1        0.0245
     36 C         137.8611  140.6456  164.6431 C.3     1  UNL1        0.0245
@<TRIPOS>UNITY_ATOM_ATTR
32 1
charge -1
@<TRIPOS>BOND
     1    25    26    1
     2    26    27   ar
     3    27    28   ar
     4    28    29   ar
     5    29    30   ar
     6    30    24    1
     7    24    23    1
     8    23    19    1
     9    19    20    2
    10    19    21   am
    11    21    14    1
    12    14    15    1
    13    15    16    1
    14    16    17    1
    15    17     1    1
    16     1     2   ar
    17     2     3    1
    18     2     4   ar
    19     4     5   ar
    20     5     6   ar
    21     6     7    2
    22     6     8   ar
    23     8    31    1
    24    31    32   ar
    25    31    33   ar
    26     8     9   ar
    27     9    10   ar
    28    10    34    1
    29    34    35    1
    30    35    36    1
    31    10    11   ar
    32    11    12   ar
    33    12    13    1
    34    17    18    1
    35    30    26   ar
    36    18    14    1
    37    12     1   ar
    38    11     5   ar
    39    36    34    1
    40    21    22    1
@<TRIPOS>MOLECULE
*****
 36 40 0 0 0
SMALL
GASTEIGER

@<TRIPOS>ATOM
      1 C         142.3872  141.1390  163.0174 C.ar    1  UNL1        0.0878
      2 C         143.4101  140.9622  161.9348 C.ar    1  UNL1        0.1543
      3 F         144.4553  139.8933  162.0578 F       1  UNL1       -0.2028
      4 C         143.3879  141.8542  160.7291 C.ar    1  UNL1        0.0356
      5 C         142.3427  142.9230  160.6060 C.ar    1  UNL1        0.0580
      6 C         142.3205  143.8151  159.4003 C.ar    1  UNL1        0.1996
      7 O         143.3435  143.6382  158.3176 O.2     1  UNL1       -0.2864
      8 C         141.2753  144.8839  159.2772 C.ar    1  UNL1        0.0701
      9 C         140.2523  145.0607  160.3600 C.ar    1  UNL1        0.0801
     10 N         140.2745  144.1687  161.5657 N.ar    1  UNL1       -0.3270
     11 C         141.3197  143.0998  161.6887 C.ar    1  UNL1        0.0750
     12 C         141.3420  142.2078  162.8944 C.ar    1  UNL1        0.0890
     13 CL        140.3190  142.3846  163.9772 Cl      1  UNL1       -0.0794
     14 C         142.7444  139.4293  166.4837 C.3     1  UNL1        0.0929
     15 C         142.1427  138.3194  165.6737 C.3     1  UNL1        0.0427
     16 C         141.9357  138.8247  164.2766 C.3     1  UNL1        0.0927
     17 N         142.4094  140.2469  164.2232 N.pl3   1  UNL1       -0.3033
     18 C         142.9092  140.6206  165.5873 C.3     1  UNL1        0.1104
     19 C         142.0797  139.6204  168.9881 C.2     1  UNL1        0.2245
     20 O         140.6717  139.9500  168.5892 O.2     1  UNL1       -0.2750
     21 N         143.1160  139.3600  167.9353 N.am    1  UNL1       -0.3042
     22 H         144.0401  139.1437  168.1971 H       1  UNL1        0.1494
     23 C         142.4513  139.5511  170.4396 C.3     1  UNL1        0.1114
     24 C         141.8035  140.4785  171.4247 C.3     1  UNL1        0.1401
     25 C         143.6395  142.8009  170.0519 C.3     1  UNL1        0.0754
     26 C         142.1727  142.8982  170.3507 C.ar    1  UNL1        0.1613
     27 N         141.2925  144.0800  170.0710 N.ar    1  UNL1       -0.1127
     28 N         139.9045  143.7429  170.5291 N.ar    1  UNL1       -0.0230
     29 N         139.9270  142.3527  171.0920 N.ar    1  UNL1       -0.0432
     30 N         141.3289  141.8307  170.9817 N.ar    1  UNL1       -0.2165
     31 C         141.2531  145.7759  158.0715 C.2     1  UNL1        0.0774
     32 O         142.5177  146.4293  157.5985 O.co2   1  UNL1       -0.5444
     33 O         139.9661  146.0146  157.3387 O.co2   1  UNL1       -0.5444
     34 C         139.2516  144.3455  162.6484 C.3     1  UNL1        0.0857
     35 C         137.8562  144.1475  163.1620 C.3     1  UNL1        0.0245
     36 C         138.8750  144.8497  164.0099 C.3     1  UNL1        0.0245
@<TRIPOS>UNITY_ATOM_ATTR
32 1
charge -1
@<TRIPOS>BOND
     1    25    26    1
     2    26    27   ar
     3    27    28   ar
     4    28    29   ar
     5    29    30   ar
     6    30    24    1
     7    24    23    1
     8    23    19    1
     9    19    20    2
    10    19    21   am
    11    21    14    1
    12    14    15    1
    13    15    16    1
    14    16    17    1
    15    17     1    1
    16     1     2   ar
    17     2     3    1
    18     2     4   ar
    19     4     5   ar
    20     5     6   ar
    21     6     7    2
    22     6     8   ar
    23     8    31    1
    24    31    32   ar
    25    31    33   ar
    26     8     9   ar
    27     9    10   ar
    28    10    34    1
    29    34    35    1
    30    35    36    1
    31    10    11   ar
    32    11    12   ar
    33    12    13    1
    34    17    18    1
    35    30    26   ar
    36    18    14    1
    37    12     1   ar
    38    11     5   ar
    39    36    34    1
    40    21    22    1
@<TRIPOS>MOLECULE
*****
 36 40 0 0 0
SMALL
GASTEIGER

@<TRIPOS>ATOM
      1 C         139.8499  139.5632  162.8953 C.ar    1  UNL1        0.0878
      2 C         138.7076  138.7730  163.4615 C.ar    1  UNL1        0.1543
      3 F         137.8169  137.9830  162.5490 F       1  UNL1       -0.2028
      4 C         138.4559  138.7728  164.9402 C.ar    1  UNL1        0.0356
      5 C         139.3466  139.5628  165.8527 C.ar    1  UNL1        0.0580
      6 C         139.0948  139.5626  167.3315 C.ar    1  UNL1        0.1996
      7 O         137.9525  138.7724  167.8977 O.2     1  UNL1       -0.2864
      8 C         139.9855  140.3526  168.2440 C.ar    1  UNL1        0.0701
      9 C         141.1279  141.1428  167.6777 C.ar    1  UNL1        0.0801
     10 N         141.3796  141.1430  166.1990 N.ar    1  UNL1       -0.3270
     11 C         140.4889  140.3530  165.2865 C.ar    1  UNL1        0.0750
     12 C         140.7406  140.3532  163.8078 C.ar    1  UNL1        0.0890
     13 CL        141.8830  141.1434  163.2415 Cl      1  UNL1       -0.0794
     14 C         140.7225  138.8520  159.1806 C.3     1  UNL1        0.0929
     15 C         140.2556  140.2754  159.1013 C.3     1  UNL1        0.0427
     16 C         139.8720  140.7150  160.4832 C.3     1  UNL1        0.0927
     17 N         140.1017  139.5634  161.4165 N.pl3   1  UNL1       -0.3033
     18 C         140.6273  138.4120  160.6115 C.3     1  UNL1        0.1104
     19 C         142.6555  138.0033  157.6663 C.2     1  UNL1        0.2245
     20 O         143.6324  138.8276  158.4514 O.2     1  UNL1       -0.2750
     21 N         141.2005  138.0156  158.0309 N.am    1  UNL1       -0.3042
     22 H         140.5593  137.4746  157.5156 H       1  UNL1        0.1494
     23 C         143.1335  137.1669  156.5166 C.3     1  UNL1        0.1114
     24 C         142.2098  136.1732  155.8769 C.3     1  UNL1        0.1401
     25 C         141.3005  133.7365  153.9058 C.3     1  UNL1        0.0754
     26 C         141.9606  133.5880  155.2445 C.ar    1  UNL1        0.1613
     27 N         142.3187  132.2935  155.9122 N.ar    1  UNL1       -0.1127
     28 N         142.9579  132.6134  157.2309 N.ar    1  UNL1       -0.0230
     29 N         142.9949  134.1057  157.3782 N.ar    1  UNL1       -0.0432
     30 N         142.3785  134.7080  156.1505 N.ar    1  UNL1       -0.2165
     31 C         139.7338  140.3524  169.7227 C.2     1  UNL1        0.0774
     32 O         138.7918  141.3534  170.3233 O.co2   1  UNL1       -0.5444
     33 O         140.4241  139.3512  170.6008 O.co2   1  UNL1       -0.5444
     34 C         142.5219  141.9332  165.6328 C.3     1  UNL1        0.0857
     35 C         143.0698  143.2221  165.0956 C.3     1  UNL1        0.0245
     36 C         143.9525  142.0130  165.1892 C.3     1  UNL1        0.0245
@<TRIPOS>UNITY_ATOM_ATTR
32 1
charge -1
@<TRIPOS>BOND
     1    25    26    1
     2    26    27   ar
     3    27    28   ar
     4    28    29   ar
     5    29    30   ar
     6    30    24    1
     7    24    23    1
     8    23    19    1
     9    19    20    2
    10    19    21   am
    11    21    14    1
    12    14    15    1
    13    15    16    1
    14    16    17    1
    15    17     1    1
    16     1     2   ar
    17     2     3    1
    18     2     4   ar
    19     4     5   ar
    20     5     6   ar
    21     6     7    2
    22     6     8   ar
    23     8    31    1
    24    31    32   ar
    25    31    33   ar
    26     8     9   ar
    27     9    10   ar
    28    10    34    1
    29    34    35    1
    30    35    36    1
    31    10    11   ar
    32    11    12   ar
    33    12    13    1
    34    17    18    1
    35    30    26   ar
    36    18    14    1
    37    12     1   ar
    38    11     5   ar
    39    36    34    1
    40    21    22    1
@<TRIPOS>MOLECULE
*****
 36 40 0 0 0
SMALL
GASTEIGER

@<TRIPOS>ATOM
      1 C         142.8584  141.2053  164.5612 C.ar    1  UNL1        0.0878
      2 C         143.7967  142.0644  165.3559 C.ar    1  UNL1        0.1543
      3 F         145.0649  142.5663  164.7315 F       1  UNL1       -0.2028
      4 C         143.4668  142.4216  166.7748 C.ar    1  UNL1        0.0356
      5 C         142.1986  141.9198  167.3992 C.ar    1  UNL1        0.0580
      6 C         141.8688  142.2771  168.8182 C.ar    1  UNL1        0.1996
      7 O         142.8071  143.1362  169.6128 O.2     1  UNL1       -0.2864
      8 C         140.6006  141.7752  169.4426 C.ar    1  UNL1        0.0701
      9 C         139.6622  140.9161  168.6479 C.ar    1  UNL1        0.0801
     10 N         139.9921  140.5588  167.2289 N.ar    1  UNL1       -0.3270
     11 C         141.2603  141.0607  166.6046 C.ar    1  UNL1        0.0750
     12 C         141.5902  140.7035  165.1856 C.ar    1  UNL1        0.0890
     13 CL        140.6518  139.8443  164.3909 Cl      1  UNL1       -0.0794
     14 C         143.2798  140.8738  160.7170 C.3     1  UNL1        0.0929
     15 C         144.1117  139.7229  161.2001 C.3     1  UNL1        0.0427
     16 C         144.0551  139.7070  162.6990 C.3     1  UNL1        0.0927
     17 N         143.1882  140.8480  163.1422 N.pl3   1  UNL1       -0.3033
     18 C         142.7090  141.5691  161.9173 C.3     1  UNL1        0.1104
     19 C         144.0358  142.1624  158.5914 C.2     1  UNL1        0.2245
     20 O         145.2363  142.6761  159.3299 O.2     1  UNL1       -0.2750
     21 N         143.0576  141.2612  159.2850 N.am    1  UNL1       -0.3042
     22 H         142.2698  140.9241  158.8004 H       1  UNL1        0.1494
     23 C         143.8137  142.5498  157.1595 C.3     1  UNL1        0.1114
     24 C         143.1872  141.5748  156.2072 C.3     1  UNL1        0.1401
     25 C         145.8210  140.5555  154.5722 C.3     1  UNL1        0.0754
     26 C         144.9018  139.6951  155.3876 C.ar    1  UNL1        0.1613
     27 N         145.0319  138.2153  155.5945 N.ar    1  UNL1       -0.1127
     28 N         143.9017  137.7691  156.4740 N.ar    1  UNL1       -0.0230
     29 N         143.0730  138.9733  156.8106 N.ar    1  UNL1       -0.0432
     30 N         143.6912  140.1637  156.1391 N.ar    1  UNL1       -0.2165
     31 C         140.2707  142.1324  170.8615 C.2     1  UNL1        0.0774
     32 O         139.3748  143.2998  171.1522 O.co2   1  UNL1       -0.5444
     33 O         140.8367  141.3222  171.9900 O.co2   1  UNL1       -0.5444
     34 C         139.0538  139.6997  166.4343 C.3     1  UNL1        0.0857
     35 C         138.0456  139.5508  165.3337 C.3     1  UNL1        0.0245
     36 C         138.4368  138.3607  166.1585 C.3     1  UNL1        0.0245
@<TRIPOS>UNITY_ATOM_ATTR
32 1
charge -1
@<TRIPOS>BOND
     1    25    26    1
     2    26    27   ar
     3    27    28   ar
     4    28    29   ar
     5    29    30   ar
     6    30    24    1
     7    24    23    1
     8    23    19    1
     9    19    20    2
    10    19    21   am
    11    21    14    1
    12    14    15    1
    13    15    16    1
    14    16    17    1
    15    17     1    1
    16     1     2   ar
    17     2     3    1
    18     2     4   ar
    19     4     5   ar
    20     5     6   ar
    21     6     7    2
    22     6     8   ar
    23     8    31    1
    24    31    32   ar
    25    31    33   ar
    26     8     9   ar
    27     9    10   ar
    28    10    34    1
    29    34    35    1
    30    35    36    1
    31    10    11   ar
    32    11    12   ar
    33    12    13    1
    34    17    18    1
    35    30    26   ar
    36    18    14    1
    37    12     1   ar
    38    11     5   ar
    39    36    34    1
    40    21    22    1
@<TRIPOS>MOLECULE
*****
 36 40 0 0 0
SMALL
GASTEIGER

@<TRIPOS>ATOM
      1 C         139.2645  140.0515  163.1195 C.ar    1  UNL1        0.0878
      2 C         138.8083  138.9666  164.0493 C.ar    1  UNL1        0.1543
      3 F         138.1904  137.7162  163.4972 F       1  UNL1       -0.2028
      4 C         138.9700  139.1319  165.5314 C.ar    1  UNL1        0.0356
      5 C         139.5879  140.3822  166.0835 C.ar    1  UNL1        0.0580
      6 C         139.7497  140.5476  167.5656 C.ar    1  UNL1        0.1996
      7 O         139.2935  139.4626  168.4955 O.2     1  UNL1       -0.2864
      8 C         140.3676  141.7979  168.1178 C.ar    1  UNL1        0.0701
      9 C         140.8238  142.8829  167.1878 C.ar    1  UNL1        0.0801
     10 N         140.6620  142.7175  165.7058 N.ar    1  UNL1       -0.3270
     11 C         140.0441  141.4672  165.1536 C.ar    1  UNL1        0.0750
     12 C         139.8824  141.3018  163.6716 C.ar    1  UNL1        0.0890
     13 CL        140.3385  142.3868  162.7416 Cl      1  UNL1       -0.0794
     14 C         138.1879  139.9753  159.3910 C.3     1  UNL1        0.0929
     15 C         139.5197  139.2883  159.3223 C.3     1  UNL1        0.0427
     16 C         140.0850  139.2333  160.7106 C.3     1  UNL1        0.0927
     17 N         139.1027  139.8862  161.6373 N.pl3   1  UNL1       -0.3033
     18 C         137.9303  140.3448  160.8218 C.3     1  UNL1        0.1104
     19 C         137.4874  141.4584  157.3761 C.2     1  UNL1        0.2245
     20 O         138.6141  142.4014  157.6785 O.2     1  UNL1       -0.2750
     21 N         137.2743  140.2453  158.2324 N.am    1  UNL1       -0.3042
     22 H         136.5349  139.6264  158.0340 H       1  UNL1        0.1494
     23 C         136.5738  141.7284  156.2175 C.3     1  UNL1        0.1114
     24 C         135.6828  140.6404  155.6955 C.3     1  UNL1        0.1401
     25 C         132.6420  141.4028  154.7892 C.3     1  UNL1        0.0754
     26 C         133.0291  140.6317  156.0162 C.ar    1  UNL1        0.1613
     27 N         132.0865  140.0757  157.0419 N.ar    1  UNL1       -0.1127
     28 N         132.9017  139.3816  158.0925 N.ar    1  UNL1       -0.0230
     29 N         134.3481  139.5087  157.7160 N.ar    1  UNL1       -0.0432
     30 N         134.4268  140.2813  156.4327 N.ar    1  UNL1       -0.2165
     31 C         140.5293  141.9633  169.5998 C.2     1  UNL1        0.0774
     32 O         139.3647  142.4023  170.4370 O.co2   1  UNL1       -0.5444
     33 O         141.8557  141.6896  170.2447 O.co2   1  UNL1       -0.5444
     34 C         141.1182  143.8025  164.7759 C.3     1  UNL1        0.0857
     35 C         142.2061  144.4549  163.9754 C.3     1  UNL1        0.0245
     36 C         140.8205  145.0293  163.9659 C.3     1  UNL1        0.0245
@<TRIPOS>UNITY_ATOM_ATTR
32 1
charge -1
@<TRIPOS>BOND
     1    25    26    1
     2    26    27   ar
     3    27    28   ar
     4    28    29   ar
     5    29    30   ar
     6    30    24    1
     7    24    23    1
     8    23    19    1
     9    19    20    2
    10    19    21   am
    11    21    14    1
    12    14    15    1
    13    15    16    1
    14    16    17    1
    15    17     1    1
    16     1     2   ar
    17     2     3    1
    18     2     4   ar
    19     4     5   ar
    20     5     6   ar
    21     6     7    2
    22     6     8   ar
    23     8    31    1
    24    31    32   ar
    25    31    33   ar
    26     8     9   ar
    27     9    10   ar
    28    10    34    1
    29    34    35    1
    30    35    36    1
    31    10    11   ar
    32    11    12   ar
    33    12    13    1
    34    17    18    1
    35    30    26   ar
    36    18    14    1
    37    12     1   ar
    38    11     5   ar
    39    36    34    1
    40    21    22    1
@<TRIPOS>MOLECULE
*****
 36 40 0 0 0
SMALL
GASTEIGER

@<TRIPOS>ATOM
      1 C         140.8785  139.4763  164.0819 C.ar    1  UNL1        0.0878
      2 C         141.7026  138.5645  164.9417 C.ar    1  UNL1        0.1543
      3 F         142.0980  137.2095  164.4341 F       1  UNL1       -0.2028
      4 C         142.1312  139.0075  166.3091 C.ar    1  UNL1        0.0356
      5 C         141.7358  140.3625  166.8167 C.ar    1  UNL1        0.0580
      6 C         142.1645  140.8056  168.1842 C.ar    1  UNL1        0.1996
      7 O         142.9886  139.8937  169.0440 O.2     1  UNL1       -0.2864
      8 C         141.7691  142.1606  168.6918 C.ar    1  UNL1        0.0701
      9 C         140.9450  143.0725  167.8319 C.ar    1  UNL1        0.0801
     10 N         140.5163  142.6294  166.4645 N.ar    1  UNL1       -0.3270
     11 C         140.9118  141.2744  165.9569 C.ar    1  UNL1        0.0750
     12 C         140.4831  140.8313  164.5895 C.ar    1  UNL1        0.0890
     13 CL        139.6590  141.7432  163.7296 Cl      1  UNL1       -0.0794
     14 C         140.4090  138.6576  160.3169 C.3     1  UNL1        0.0929
     15 C         139.1714  138.0454  160.9032 C.3     1  UNL1        0.0427
     16 C         139.1967  138.2776  162.3849 C.3     1  UNL1        0.0927
     17 N         140.4498  139.0333  162.7144 N.pl3   1  UNL1       -0.3033
     18 C         141.1990  139.2681  161.4363 C.3     1  UNL1        0.1104
     19 C         142.0329  137.9507  158.4161 C.2     1  UNL1        0.2245
     20 O         142.8957  137.2409  159.4172 O.2     1  UNL1       -0.2750
     21 N         140.7896  138.6590  158.8660 N.am    1  UNL1       -0.3042
     22 H         140.2233  139.1248  158.2090 H       1  UNL1        0.1494
     23 C         142.4135  137.9521  156.9652 C.3     1  UNL1        0.1114
     24 C         143.3234  136.8876  156.4274 C.3     1  UNL1        0.1401
     25 C         141.1257  135.3824  154.5423 C.3     1  UNL1        0.0754
     26 C         141.9148  134.7525  155.6516 C.ar    1  UNL1        0.1613
     27 N         141.8322  133.3202  156.0892 N.ar    1  UNL1       -0.1127
     28 N         142.7913  133.1268  157.2261 N.ar    1  UNL1       -0.0230
     29 N         143.4667  134.4396  157.4912 N.ar    1  UNL1       -0.0432
     30 N         142.9249  135.4444  156.5181 N.ar    1  UNL1       -0.2165
     31 C         142.1978  142.6037  170.0592 C.2     1  UNL1        0.0774
     32 O         143.5689  143.1755  170.2669 O.co2   1  UNL1       -0.5444
     33 O         141.2553  142.4749  171.2191 O.co2   1  UNL1       -0.5444
     34 C         139.6923  143.5413  165.6047 C.3     1  UNL1        0.0857
     35 C         138.3519  144.0284  165.1398 C.3     1  UNL1        0.0245
     36 C         139.6052  144.6336  164.5804 C.3     1  UNL1        0.0245
@<TRIPOS>UNITY_ATOM_ATTR
32 1
charge -1
@<TRIPOS>BOND
     1    25    26    1
     2    26    27   ar
     3    27    28   ar
     4    28    29   ar
     5    29    30   ar
     6    30    24    1
     7    24    23    1
     8    23    19    1
     9    19    20    2
    10    19    21   am
    11    21    14    1
    12    14    15    1
    13    15    16    1
    14    16    17    1
    15    17     1    1
    16     1     2   ar
    17     2     3    1
    18     2     4   ar
    19     4     5   ar
    20     5     6   ar
    21     6     7    2
    22     6     8   ar
    23     8    31    1
    24    31    32   ar
    25    31    33   ar
    26     8     9   ar
    27     9    10   ar
    28    10    34    1
    29    34    35    1
    30    35    36    1
    31    10    11   ar
    32    11    12   ar
    33    12    13    1
    34    17    18    1
    35    30    26   ar
    36    18    14    1
    37    12     1   ar
    38    11     5   ar
    39    36    34    1
    40    21    22    1
@<TRIPOS>MOLECULE
*****
 36 40 0 0 0
SMALL
GASTEIGER

@<TRIPOS>ATOM
      1 C         142.7941  141.0361  164.6097 C.ar    1  UNL1        0.0878
      2 C         143.7429  141.9138  165.3708 C.ar    1  UNL1        0.1543
      3 F         145.0129  142.3828  164.7248 F       1  UNL1       -0.2028
      4 C         143.4218  142.3226  166.7778 C.ar    1  UNL1        0.0356
      5 C         142.1518  141.8537  167.4237 C.ar    1  UNL1        0.0580
      6 C         141.8307  142.2625  168.8308 C.ar    1  UNL1        0.1996
      7 O         142.7795  143.1403  169.5918 O.2     1  UNL1       -0.2864
      8 C         140.5607  141.7936  169.4767 C.ar    1  UNL1        0.0701
      9 C         139.6118  140.9158  168.7156 C.ar    1  UNL1        0.0801
     10 N         139.9330  140.5070  167.3086 N.ar    1  UNL1       -0.3270
     11 C         141.2030  140.9759  166.6626 C.ar    1  UNL1        0.0750
     12 C         141.5241  140.5671  165.2556 C.ar    1  UNL1        0.0890
     13 CL        140.5753  139.6894  164.4945 Cl      1  UNL1       -0.0794
     14 C         143.2211  140.5852  160.7782 C.3     1  UNL1        0.0929
     15 C         143.9976  139.4111  161.2966 C.3     1  UNL1        0.0427
     16 C         143.9322  139.4371  162.7949 C.3     1  UNL1        0.0927
     17 N         143.1153  140.6273  163.2026 N.pl3   1  UNL1       -0.3033
     18 C         142.6758  141.3368  161.9562 C.3     1  UNL1        0.1104
     19 C         143.8706  142.0115  158.7060 C.2     1  UNL1        0.2245
     20 O         144.9134  142.7190  159.5198 O.2     1  UNL1       -0.2750
     21 N         143.0245  140.9446  159.3352 N.am    1  UNL1       -0.3042
     22 H         142.3402  140.4802  158.8011 H       1  UNL1        0.1494
     23 C         143.6740  142.3709  157.2631 C.3     1  UNL1        0.1114
     24 C         142.6368  143.3833  156.8769 C.3     1  UNL1        0.1401
     25 C         139.6780  142.3139  157.7436 C.3     1  UNL1        0.0754
     26 C         140.3928  143.4976  158.3248 C.ar    1  UNL1        0.1613
     27 N         139.8731  144.3976  159.4063 N.ar    1  UNL1       -0.1127
     28 N         140.9119  145.4454  159.6764 N.ar    1  UNL1       -0.0230
     29 N         142.0736  145.1930  158.7618 N.ar    1  UNL1       -0.0432
     30 N         141.7528  143.9892  157.9264 N.ar    1  UNL1       -0.2165
     31 C         140.2395  142.2024  170.8837 C.2     1  UNL1        0.0774
     32 O         140.8151  141.4357  172.0374 O.co2   1  UNL1       -0.5444
     33 O         139.3428  143.3779  171.1371 O.co2   1  UNL1       -0.5444
     34 C         138.9842  139.6292  166.5475 C.3     1  UNL1        0.0857
     35 C         137.9746  139.4499  165.4527 C.3     1  UNL1        0.0245
     36 C         138.3503  138.2883  166.3241 C.3     1  UNL1        0.0245
@<TRIPOS>UNITY_ATOM_ATTR
32 1
charge -1
@<TRIPOS>BOND
     1    25    26    1
     2    26    27   ar
     3    27    28   ar
     4    28    29   ar
     5    29    30   ar
     6    30    24    1
     7    24    23    1
     8    23    19    1
     9    19    20    2
    10    19    21   am
    11    21    14    1
    12    14    15    1
    13    15    16    1
    14    16    17    1
    15    17     1    1
    16     1     2   ar
    17     2     3    1
    18     2     4   ar
    19     4     5   ar
    20     5     6   ar
    21     6     7    2
    22     6     8   ar
    23     8    31    1
    24    31    32   ar
    25    31    33   ar
    26     8     9   ar
    27     9    10   ar
    28    10    34    1
    29    34    35    1
    30    35    36    1
    31    10    11   ar
    32    11    12   ar
    33    12    13    1
    34    17    18    1
    35    30    26   ar
    36    18    14    1
    37    12     1   ar
    38    11     5   ar
    39    36    34    1
    40    21    22    1
@<TRIPOS>MOLECULE
*****
 36 40 0 0 0
SMALL
GASTEIGER

@<TRIPOS>ATOM
      1 C         142.0822  142.4673  163.8531 C.ar    1  UNL1        0.0878
      2 C         143.1736  143.2473  164.5242 C.ar    1  UNL1        0.1543
      3 F         143.9833  144.2343  163.7367 F       1  UNL1       -0.2028
      4 C         143.4553  143.0402  165.9829 C.ar    1  UNL1        0.0356
      5 C         142.6456  142.0532  166.7704 C.ar    1  UNL1        0.0580
      6 C         142.9274  141.8461  168.2291 C.ar    1  UNL1        0.1996
      7 O         144.0188  142.6261  168.9003 O.2     1  UNL1       -0.2864
      8 C         142.1177  140.8591  169.0166 C.ar    1  UNL1        0.0701
      9 C         141.0262  140.0791  168.3454 C.ar    1  UNL1        0.0801
     10 N         140.7445  140.2862  166.8868 N.ar    1  UNL1       -0.3270
     11 C         141.5542  141.2732  166.0993 C.ar    1  UNL1        0.0750
     12 C         141.2725  141.4803  164.6406 C.ar    1  UNL1        0.0890
     13 CL        140.1811  140.7003  163.9694 Cl      1  UNL1       -0.0794
     14 C         140.9115  143.5646  160.3188 C.3     1  UNL1        0.0929
     15 C         141.8221  142.4214  159.9806 C.3     1  UNL1        0.0427
     16 C         142.3714  141.8713  161.2634 C.3     1  UNL1        0.0927
     17 N         141.8004  142.6744  162.3944 N.pl3   1  UNL1       -0.3033
     18 C         140.8982  143.7209  161.8105 C.3     1  UNL1        0.1104
     19 C         140.8776  145.3656  158.4466 C.2     1  UNL1        0.2245
     20 O         142.3699  145.4879  158.5371 O.2     1  UNL1       -0.2750
     21 N         140.1484  144.4040  159.3374 N.am    1  UNL1       -0.3042
     22 H         139.1690  144.3237  159.2780 H       1  UNL1        0.1494
     23 C         140.1144  146.2050  157.4653 C.3     1  UNL1        0.1114
     24 C         139.9110  145.7186  156.0609 C.3     1  UNL1        0.1401
     25 C         140.0244  142.4681  156.3270 C.3     1  UNL1        0.0754
     26 C         138.8441  143.2750  155.8731 C.ar    1  UNL1        0.1613
     27 N         137.5089  142.7294  155.4618 N.ar    1  UNL1       -0.1127
     28 N         136.6315  143.8863  155.0854 N.ar    1  UNL1       -0.0230
     29 N         137.4245  145.1469  155.2640 N.ar    1  UNL1       -0.0432
     30 N         138.7921  144.7690  155.7508 N.ar    1  UNL1       -0.2165
     31 C         142.3994  140.6520  170.4753 C.2     1  UNL1        0.0774
     32 O         143.4549  139.6763  170.9042 O.co2   1  UNL1       -0.5444
     33 O         141.6256  141.4207  171.5051 O.co2   1  UNL1       -0.5444
     34 C         139.6531  139.5062  166.2156 C.3     1  UNL1        0.0857
     35 C         139.2087  138.3158  165.4186 C.3     1  UNL1        0.0245
     36 C         138.2073  139.3457  165.8502 C.3     1  UNL1        0.0245
@<TRIPOS>UNITY_ATOM_ATTR
32 1
charge -1
@<TRIPOS>BOND
     1    25    26    1
     2    26    27   ar
     3    27    28   ar
     4    28    29   ar
     5    29    30   ar
     6    30    24    1
     7    24    23    1
     8    23    19    1
     9    19    20    2
    10    19    21   am
    11    21    14    1
    12    14    15    1
    13    15    16    1
    14    16    17    1
    15    17     1    1
    16     1     2   ar
    17     2     3    1
    18     2     4   ar
    19     4     5   ar
    20     5     6   ar
    21     6     7    2
    22     6     8   ar
    23     8    31    1
    24    31    32   ar
    25    31    33   ar
    26     8     9   ar
    27     9    10   ar
    28    10    34    1
    29    34    35    1
    30    35    36    1
    31    10    11   ar
    32    11    12   ar
    33    12    13    1
    34    17    18    1
    35    30    26   ar
    36    18    14    1
    37    12     1   ar
    38    11     5   ar
    39    36    34    1
    40    21    22    1
