@<TRIPOS>MOLECULE
*****
 37 40 0 0 0
SMALL
GASTEIGER

@<TRIPOS>ATOM
      1 C         142.9662  140.4479  162.0236 C.3     1  UNL1        0.0688
      2 C         143.7739  139.1841  162.0356 C.3     1  UNL1        0.0485
      3 C         144.3256  138.6343  160.7536 C.3     1  UNL1        0.1433
      4 O         144.0694  139.3485  159.4596 O.3     1  UNL1       -0.3584
      5 C         143.2617  140.6123  159.4476 C.3     1  UNL1        0.0942
      6 C         142.5610  141.8324  158.9276 C.3     1  UNL1        0.0297
      7 C         143.5700  140.4863  157.9850 C.3     1  UNL1        0.0297
      8 C         142.7101  141.1621  160.7296 C.3     1  UNL1        0.0437
      9 N         142.9385  140.1350  163.4904 N.3     1  UNL1       -0.2710
     10 C         143.1336  141.2316  164.4950 C.3     1  UNL1        0.0897
     11 C         143.1059  140.9186  165.9617 C.3     1  UNL1        0.0899
     12 N         142.8829  139.5091  166.4237 N.3     1  UNL1       -0.2665
     13 C         142.6878  138.4125  165.4191 C.3     1  UNL1        0.0899
     14 C         142.7156  138.7254  163.9524 C.3     1  UNL1        0.0897
     15 C         142.8552  139.1961  167.8905 C.3     1  UNL1        0.0992
     16 C         141.9221  139.9407  168.7987 C.ar    1  UNL1       -0.0061
     17 C         142.4523  140.6158  170.0288 C.ar    1  UNL1       -0.0029
     18 C         141.5191  141.3604  170.9370 C.ar    1  UNL1       -0.0003
     19 C         140.0557  141.4299  170.6151 C.ar    1  UNL1       -0.0000
     20 C         139.5255  140.7548  169.3850 C.ar    1  UNL1       -0.0003
     21 C         140.4586  140.0102  168.4768 C.ar    1  UNL1       -0.0029
     22 C         142.1488  141.6032  162.5210 C.3     1  UNL1        0.1143
     23 C         139.8790  142.7790  162.0572 C.2     1  UNL1        0.2304
     24 O         140.6033  144.0569  161.7529 O.2     1  UNL1       -0.2745
     25 N         140.6519  141.5522  162.4412 N.am    1  UNL1       -0.2425
     26 C         139.9277  140.2743  162.7455 C.ar    1  UNL1        0.1373
     27 C         139.6743  139.2776  161.6535 C.ar    1  UNL1        0.0347
     28 C         138.9501  137.9997  161.9578 C.ar    1  UNL1        0.0044
     29 C         138.4793  137.7186  163.3540 C.ar    1  UNL1        0.0232
     30 C         138.7327  138.7153  164.4459 C.ar    1  UNL1        0.1540
     31 N         139.4569  139.9932  164.1417 N.ar    1  UNL1       -0.2263
     32 C         138.2619  138.4342  165.8421 C.3     1  UNL1        0.4349
     33 F         137.7911  138.1531  167.2383 F       1  UNL1       -0.1644
     34 F         138.5258  136.9720  165.6366 F       1  UNL1       -0.1644
     35 F         137.9981  139.8964  166.0476 F       1  UNL1       -0.1644
     36 C         137.5544  143.0877  163.1755 C.3     1  UNL1        0.0101
     37 C         138.3820  142.7281  161.9774 C.3     1  UNL1        0.0857
@<TRIPOS>BOND
     1    36    37    1
     2    37    23    1
     3    23    24    2
     4    23    25   am
     5    25    22    1
     6    22     1    1
     7     1     9    1
     8     9    10    1
     9    10    11    1
    10    11    12    1
    11    12    15    1
    12    15    16    1
    13    16    17   ar
    14    17    18   ar
    15    18    19   ar
    16    19    20   ar
    17    20    21   ar
    18    12    13    1
    19    13    14    1
    20     1     2    1
    21     2     3    1
    22     3     4    1
    23     4     5    1
    24     5     6    1
    25     5     7    1
    26     5     8    1
    27    25    26    1
    28    26    27   ar
    29    27    28   ar
    30    28    29   ar
    31    29    30   ar
    32    30    32    1
    33    32    33    1
    34    32    34    1
    35    32    35    1
    36    30    31   ar
    37     8     1    1
    38    31    26   ar
    39    14     9    1
    40    21    16   ar
@<TRIPOS>MOLECULE
*****
 37 40 0 0 0
SMALL
GASTEIGER

@<TRIPOS>ATOM
      1 C         142.6026  140.3237  162.0822 C.3     1  UNL1        0.0688
      2 C         143.8107  139.5303  162.4832 C.3     1  UNL1        0.0485
      3 C         144.4262  138.5614  161.5176 C.3     1  UNL1        0.1433
      4 O         143.8335  138.3860  160.1508 O.3     1  UNL1       -0.3584
      5 C         142.6254  139.1794  159.7497 C.3     1  UNL1        0.0942
      6 C         141.4946  139.6991  158.9123 C.3     1  UNL1        0.0297
      7 C         142.8481  138.3911  158.4932 C.3     1  UNL1        0.0297
      8 C         142.0099  140.1483  160.7154 C.3     1  UNL1        0.0437
      9 N         142.7994  140.8365  163.4780 N.3     1  UNL1       -0.2710
     10 C         142.8763  142.3131  163.7307 C.3     1  UNL1        0.0897
     11 C         143.0731  142.8258  165.1265 C.3     1  UNL1        0.0899
     12 N         143.1930  141.8621  166.2696 N.3     1  UNL1       -0.2665
     13 C         143.1161  140.3855  166.0170 C.3     1  UNL1        0.0899
     14 C         142.9193  139.8728  164.6212 C.3     1  UNL1        0.0897
     15 C         143.3898  142.3749  167.6655 C.3     1  UNL1        0.0992
     16 C         142.4110  142.0123  168.7427 C.ar    1  UNL1       -0.0061
     17 C         141.0823  142.7048  168.8128 C.ar    1  UNL1       -0.0029
     18 C         140.1034  142.3421  169.8901 C.ar    1  UNL1       -0.0003
     19 C         140.4534  141.2870  170.8972 C.ar    1  UNL1       -0.0000
     20 C         141.7821  140.5946  170.8270 C.ar    1  UNL1       -0.0003
     21 C         142.7609  140.9572  169.7498 C.ar    1  UNL1       -0.0029
     22 C         141.4628  141.2952  162.1659 C.3     1  UNL1        0.1143
     23 C         139.0161  141.3541  161.2938 C.2     1  UNL1        0.2304
     24 O         139.3933  142.4196  160.3077 O.2     1  UNL1       -0.2745
     25 N         140.0509  140.7919  162.2229 N.am    1  UNL1       -0.2425
     26 C         139.6738  139.7264  163.2091 C.ar    1  UNL1        0.1373
     27 C         139.5536  138.2996  162.7622 C.ar    1  UNL1        0.0347
     28 C         139.1764  137.2341  163.7484 C.ar    1  UNL1        0.0044
     29 C         138.9195  137.5955  165.1814 C.ar    1  UNL1        0.0232
     30 C         139.0397  139.0223  165.6281 C.ar    1  UNL1        0.1540
     31 N         139.4168  140.0878  164.6421 N.ar    1  UNL1       -0.2263
     32 C         138.7828  139.3837  167.0612 C.3     1  UNL1        0.4349
     33 F         138.5259  139.7451  168.4942 F       1  UNL1       -0.1644
     34 F         137.3987  138.8152  166.9563 F       1  UNL1       -0.1644
     35 F         140.1669  139.9522  167.1660 F       1  UNL1       -0.1644
     36 C         137.1751  139.7187  160.4653 C.3     1  UNL1        0.0101
     37 C         137.6042  140.8508  161.3508 C.3     1  UNL1        0.0857
@<TRIPOS>BOND
     1    36    37    1
     2    37    23    1
     3    23    24    2
     4    23    25   am
     5    25    22    1
     6    22     1    1
     7     1     9    1
     8     9    10    1
     9    10    11    1
    10    11    12    1
    11    12    15    1
    12    15    16    1
    13    16    17   ar
    14    17    18   ar
    15    18    19   ar
    16    19    20   ar
    17    20    21   ar
    18    12    13    1
    19    13    14    1
    20     1     2    1
    21     2     3    1
    22     3     4    1
    23     4     5    1
    24     5     6    1
    25     5     7    1
    26     5     8    1
    27    25    26    1
    28    26    27   ar
    29    27    28   ar
    30    28    29   ar
    31    29    30   ar
    32    30    32    1
    33    32    33    1
    34    32    34    1
    35    32    35    1
    36    30    31   ar
    37     8     1    1
    38    31    26   ar
    39    14     9    1
    40    21    16   ar
@<TRIPOS>MOLECULE
*****
 37 40 0 0 0
SMALL
GASTEIGER

@<TRIPOS>ATOM
      1 C         141.1522  140.7809  167.0070 C.3     1  UNL1        0.0688
      2 C         139.9371  140.2371  167.6983 C.3     1  UNL1        0.0485
      3 C         139.7528  140.4526  169.1712 C.3     1  UNL1        0.1433
      4 O         140.7837  141.2118  169.9529 O.3     1  UNL1       -0.3584
      5 C         141.9987  141.7556  169.2616 C.3     1  UNL1        0.0942
      6 C         143.3076  142.4591  169.0572 C.3     1  UNL1        0.0297
      7 C         142.2690  142.2154  170.6636 C.3     1  UNL1        0.0297
      8 C         142.1830  141.5402  167.7887 C.3     1  UNL1        0.0437
      9 N         140.4598  140.1323  165.8451 N.3     1  UNL1       -0.2710
     10 C         141.2281  139.2365  164.9192 C.3     1  UNL1        0.0897
     11 C         140.5357  138.5879  163.7573 C.3     1  UNL1        0.0899
     12 N         139.0752  138.8351  163.5213 N.3     1  UNL1       -0.2665
     13 C         138.3070  139.7310  164.4472 C.3     1  UNL1        0.0899
     14 C         138.9993  140.3795  165.6091 C.3     1  UNL1        0.0897
     15 C         138.3829  138.1865  162.3594 C.3     1  UNL1        0.0992
     16 C         138.5960  138.7121  160.9708 C.ar    1  UNL1       -0.0061
     17 C         137.6291  139.6984  160.3855 C.ar    1  UNL1       -0.0029
     18 C         137.8423  140.2240  158.9968 C.ar    1  UNL1       -0.0003
     19 C         139.0222  139.7633  158.1935 C.ar    1  UNL1       -0.0000
     20 C         139.9891  138.7771  158.7787 C.ar    1  UNL1       -0.0003
     21 C         139.7760  138.2514  160.1673 C.ar    1  UNL1       -0.0029
     22 C         142.1268  141.0995  165.9122 C.3     1  UNL1        0.1143
     23 C         143.3832  143.1806  164.9956 C.2     1  UNL1        0.2304
     24 O         144.6919  142.5673  165.3969 O.2     1  UNL1       -0.2745
     25 N         142.1006  142.4467  165.2533 N.am    1  UNL1       -0.2425
     26 C         140.7919  143.0600  164.8519 C.ar    1  UNL1        0.1373
     27 C         140.0270  143.9018  165.8298 C.ar    1  UNL1        0.0347
     28 C         138.7182  144.5152  165.4285 C.ar    1  UNL1        0.0044
     29 C         138.1745  144.2867  164.0493 C.ar    1  UNL1        0.0232
     30 C         138.9394  143.4449  163.0715 C.ar    1  UNL1        0.1540
     31 N         140.2481  142.8315  163.4728 N.ar    1  UNL1       -0.2263
     32 C         138.3956  143.2164  161.6923 C.3     1  UNL1        0.4349
     33 F         137.8519  142.9879  160.3131 F       1  UNL1       -0.1644
     34 F         137.3435  142.3089  162.2575 F       1  UNL1       -0.1644
     35 F         139.4477  144.1239  161.1271 F       1  UNL1       -0.1644
     36 C         143.5662  144.6428  162.8558 C.3     1  UNL1        0.0101
     37 C         143.3571  144.5279  164.3367 C.3     1  UNL1        0.0857
@<TRIPOS>BOND
     1    36    37    1
     2    37    23    1
     3    23    24    2
     4    23    25   am
     5    25    22    1
     6    22     1    1
     7     1     9    1
     8     9    10    1
     9    10    11    1
    10    11    12    1
    11    12    15    1
    12    15    16    1
    13    16    17   ar
    14    17    18   ar
    15    18    19   ar
    16    19    20   ar
    17    20    21   ar
    18    12    13    1
    19    13    14    1
    20     1     2    1
    21     2     3    1
    22     3     4    1
    23     4     5    1
    24     5     6    1
    25     5     7    1
    26     5     8    1
    27    25    26    1
    28    26    27   ar
    29    27    28   ar
    30    28    29   ar
    31    29    30   ar
    32    30    32    1
    33    32    33    1
    34    32    34    1
    35    32    35    1
    36    30    31   ar
    37     8     1    1
    38    31    26   ar
    39    14     9    1
    40    21    16   ar
@<TRIPOS>MOLECULE
*****
 37 40 0 0 0
SMALL
GASTEIGER

@<TRIPOS>ATOM
      1 C         142.9555  141.1768  163.8732 C.3     1  UNL1        0.0688
      2 C         143.8065  142.3952  163.6707 C.3     1  UNL1        0.0485
      3 C         144.2218  143.2244  164.8496 C.3     1  UNL1        0.1433
      4 O         143.7859  142.8352  166.2312 O.3     1  UNL1       -0.3584
      5 C         142.9348  141.6168  166.4337 C.3     1  UNL1        0.0942
      6 C         142.1309  140.5588  167.1296 C.3     1  UNL1        0.0297
      7 C         143.0708  142.0786  167.8544 C.3     1  UNL1        0.0297
      8 C         142.5195  140.7876  165.2547 C.3     1  UNL1        0.0437
      9 N         143.1150  141.1382  162.3822 N.3     1  UNL1       -0.2710
     10 C         143.7811  139.9634  161.7294 C.3     1  UNL1        0.0897
     11 C         143.9406  139.9248  160.2384 C.3     1  UNL1        0.0899
     12 N         143.4340  141.0610  159.4003 N.3     1  UNL1       -0.2665
     13 C         142.7679  142.2357  160.0531 C.3     1  UNL1        0.0899
     14 C         142.6084  142.2743  161.5440 C.3     1  UNL1        0.0897
     15 C         143.5936  141.0223  157.9092 C.3     1  UNL1        0.0992
     16 C         144.8984  141.4178  157.2841 C.ar    1  UNL1       -0.0061
     17 C         145.7354  142.4929  157.9115 C.ar    1  UNL1       -0.0029
     18 C         147.0403  142.8883  157.2863 C.ar    1  UNL1       -0.0003
     19 C         147.5083  142.2086  156.0337 C.ar    1  UNL1       -0.0000
     20 C         146.6713  141.1335  155.4063 C.ar    1  UNL1       -0.0003
     21 C         145.3665  140.7381  156.0314 C.ar    1  UNL1       -0.0029
     22 C         142.1597  139.9449  163.5579 C.3     1  UNL1        0.1143
     23 C         140.1262  138.6812  164.5666 C.2     1  UNL1        0.2304
     24 O         141.0166  137.5248  164.9130 O.2     1  UNL1       -0.2745
     25 N         140.6978  139.8912  163.8891 N.am    1  UNL1       -0.2425
     26 C         139.8073  141.0476  163.5428 C.ar    1  UNL1        0.1373
     27 C         139.0947  141.0765  162.2232 C.ar    1  UNL1        0.0347
     28 C         138.2043  142.2329  161.8768 C.ar    1  UNL1        0.0044
     29 C         138.0265  143.3603  162.8501 C.ar    1  UNL1        0.0232
     30 C         138.7391  143.3314  164.1697 C.ar    1  UNL1        0.1540
     31 N         139.6295  142.1751  164.5161 N.ar    1  UNL1       -0.2263
     32 C         138.5613  144.4589  165.1430 C.3     1  UNL1        0.4349
     33 F         138.3835  145.5863  166.1163 F       1  UNL1       -0.1644
     34 F         137.0720  144.3383  165.0105 F       1  UNL1       -0.1644
     35 F         140.0505  144.5793  165.2755 F       1  UNL1       -0.1644
     36 C         138.2017  138.9032  166.2978 C.3     1  UNL1        0.0101
     37 C         138.6642  138.6274  164.8979 C.3     1  UNL1        0.0857
@<TRIPOS>BOND
     1    36    37    1
     2    37    23    1
     3    23    24    2
     4    23    25   am
     5    25    22    1
     6    22     1    1
     7     1     9    1
     8     9    10    1
     9    10    11    1
    10    11    12    1
    11    12    15    1
    12    15    16    1
    13    16    17   ar
    14    17    18   ar
    15    18    19   ar
    16    19    20   ar
    17    20    21   ar
    18    12    13    1
    19    13    14    1
    20     1     2    1
    21     2     3    1
    22     3     4    1
    23     4     5    1
    24     5     6    1
    25     5     7    1
    26     5     8    1
    27    25    26    1
    28    26    27   ar
    29    27    28   ar
    30    28    29   ar
    31    29    30   ar
    32    30    32    1
    33    32    33    1
    34    32    34    1
    35    32    35    1
    36    30    31   ar
    37     8     1    1
    38    31    26   ar
    39    14     9    1
    40    21    16   ar
@<TRIPOS>MOLECULE
*****
 37 40 0 0 0
SMALL
GASTEIGER

@<TRIPOS>ATOM
      1 C         141.5268  139.4537  161.7520 C.3     1  UNL1        0.0688
      2 C         140.2134  138.7599  161.5436 C.3     1  UNL1        0.0485
      3 C         139.8239  138.2871  160.1744 C.3     1  UNL1        0.1433
      4 O         140.7479  138.5082  159.0135 O.3     1  UNL1       -0.3584
      5 C         142.0612  139.2021  159.2219 C.3     1  UNL1        0.0942
      6 C         143.4010  139.8044  158.9182 C.3     1  UNL1        0.0297
      7 C         142.1370  138.9385  157.7472 C.3     1  UNL1        0.0297
      8 C         142.4508  139.6749  160.5911 C.3     1  UNL1        0.0437
      9 N         140.9949  139.4764  163.1544 N.3     1  UNL1       -0.2710
     10 C         141.8811  139.0835  164.2990 C.3     1  UNL1        0.0897
     11 C         141.3492  139.1062  165.7013 C.3     1  UNL1        0.0899
     12 N         139.9311  139.5216  165.9590 N.3     1  UNL1       -0.2665
     13 C         139.0449  139.9145  164.8143 C.3     1  UNL1        0.0899
     14 C         139.5768  139.8918  163.4120 C.3     1  UNL1        0.0897
     15 C         139.3991  139.5443  167.3614 C.3     1  UNL1        0.0992
     16 C         139.6777  140.7199  168.2503 C.ar    1  UNL1       -0.0061
     17 C         139.3613  140.6446  169.7146 C.ar    1  UNL1       -0.0029
     18 C         139.6399  141.8203  170.6035 C.ar    1  UNL1       -0.0003
     19 C         140.2350  143.0712  170.0281 C.ar    1  UNL1       -0.0000
     20 C         140.5515  143.1465  168.5638 C.ar    1  UNL1       -0.0003
     21 C         140.2728  141.9709  167.6749 C.ar    1  UNL1       -0.0029
     22 C         142.6556  140.1555  162.4474 C.3     1  UNL1        0.1143
     23 C         144.1722  142.2593  162.2936 C.2     1  UNL1        0.2304
     24 O         145.3898  141.3886  162.3912 O.2     1  UNL1       -0.2745
     25 N         142.8051  141.6427  162.3217 N.am    1  UNL1       -0.2425
     26 C         141.5875  142.5134  162.2241 C.ar    1  UNL1        0.1373
     27 C         141.0176  142.8576  160.8800 C.ar    1  UNL1        0.0347
     28 C         139.8000  143.7283  160.7824 C.ar    1  UNL1        0.0044
     29 C         139.1525  144.2546  162.0288 C.ar    1  UNL1        0.0232
     30 C         139.7225  143.9103  163.3729 C.ar    1  UNL1        0.1540
     31 N         140.9400  143.0397  163.4705 N.ar    1  UNL1       -0.2263
     32 C         139.0750  144.4367  164.6194 C.3     1  UNL1        0.4349
     33 F         138.4274  144.9631  165.8659 F       1  UNL1       -0.1644
     34 F         140.3808  144.3178  165.3478 F       1  UNL1       -0.1644
     35 F         137.7692  144.5555  163.8909 F       1  UNL1       -0.1644
     36 C         144.0230  144.6322  163.3409 C.3     1  UNL1        0.0101
     37 C         144.3219  143.7465  162.1679 C.3     1  UNL1        0.0857
@<TRIPOS>BOND
     1    36    37    1
     2    37    23    1
     3    23    24    2
     4    23    25   am
     5    25    22    1
     6    22     1    1
     7     1     9    1
     8     9    10    1
     9    10    11    1
    10    11    12    1
    11    12    15    1
    12    15    16    1
    13    16    17   ar
    14    17    18   ar
    15    18    19   ar
    16    19    20   ar
    17    20    21   ar
    18    12    13    1
    19    13    14    1
    20     1     2    1
    21     2     3    1
    22     3     4    1
    23     4     5    1
    24     5     6    1
    25     5     7    1
    26     5     8    1
    27    25    26    1
    28    26    27   ar
    29    27    28   ar
    30    28    29   ar
    31    29    30   ar
    32    30    32    1
    33    32    33    1
    34    32    34    1
    35    32    35    1
    36    30    31   ar
    37     8     1    1
    38    31    26   ar
    39    14     9    1
    40    21    16   ar
@<TRIPOS>MOLECULE
*****
 37 40 0 0 0
SMALL
GASTEIGER

@<TRIPOS>ATOM
      1 C         139.9535  140.3531  162.1569 C.3     1  UNL1        0.0688
      2 C         140.6522  139.0631  161.8447 C.3     1  UNL1        0.0485
      3 C         140.5187  138.4483  160.4830 C.3     1  UNL1        0.1433
      4 O         139.6865  139.1236  159.4335 O.3     1  UNL1       -0.3584
      5 C         138.9878  140.4137  159.7457 C.3     1  UNL1        0.0942
      6 C         138.1406  141.6379  159.5630 C.3     1  UNL1        0.0297
      7 C         138.5601  140.2241  158.3206 C.3     1  UNL1        0.0297
      8 C         139.1213  141.0285  161.1074 C.3     1  UNL1        0.0437
      9 N         140.6239  140.0947  163.4737 N.3     1  UNL1       -0.2710
     10 C         139.8228  140.1230  164.7415 C.3     1  UNL1        0.0897
     11 C         140.4932  139.8646  166.0582 C.3     1  UNL1        0.0899
     12 N         141.9648  139.5778  166.1071 N.3     1  UNL1       -0.2665
     13 C         142.7659  139.5496  164.8393 C.3     1  UNL1        0.0899
     14 C         142.0955  139.8080  163.5226 C.3     1  UNL1        0.0897
     15 C         142.6352  139.3194  167.4239 C.3     1  UNL1        0.0992
     16 C         142.4302  140.2668  168.5686 C.ar    1  UNL1       -0.0061
     17 C         141.6189  139.8429  169.7569 C.ar    1  UNL1       -0.0029
     18 C         141.4139  140.7904  170.9016 C.ar    1  UNL1       -0.0003
     19 C         142.0202  142.1617  170.8580 C.ar    1  UNL1       -0.0000
     20 C         142.8315  142.5856  169.6697 C.ar    1  UNL1       -0.0003
     21 C         143.0365  141.6382  168.5250 C.ar    1  UNL1       -0.0029
     22 C         139.4876  141.5535  162.9265 C.3     1  UNL1        0.1143
     23 C         139.1538  144.0731  162.3881 C.2     1  UNL1        0.2304
     24 O         137.6663  143.8884  162.4459 O.2     1  UNL1       -0.2745
     25 N         140.0644  142.9057  162.6284 N.am    1  UNL1       -0.2425
     26 C         141.5519  143.0904  162.5706 C.ar    1  UNL1        0.1373
     27 C         142.2707  142.9819  161.2585 C.ar    1  UNL1        0.0347
     28 C         143.7582  143.1666  161.2007 C.ar    1  UNL1        0.0044
     29 C         144.5268  143.4599  162.4550 C.ar    1  UNL1        0.0232
     30 C         143.8079  143.5685  163.7670 C.ar    1  UNL1        0.1540
     31 N         142.3205  143.3837  163.8249 N.ar    1  UNL1       -0.2263
     32 C         144.5766  143.8618  165.0213 C.3     1  UNL1        0.4349
     33 F         145.3452  144.1551  166.2756 F       1  UNL1       -0.1644
     34 F         144.9313  142.4095  165.1435 F       1  UNL1       -0.1644
     35 F         144.2218  145.3141  164.8991 F       1  UNL1       -0.1644
     36 C         140.0505  145.8091  160.6757 C.3     1  UNL1        0.0101
     37 C         139.7305  145.4253  162.0900 C.3     1  UNL1        0.0857
@<TRIPOS>BOND
     1    36    37    1
     2    37    23    1
     3    23    24    2
     4    23    25   am
     5    25    22    1
     6    22     1    1
     7     1     9    1
     8     9    10    1
     9    10    11    1
    10    11    12    1
    11    12    15    1
    12    15    16    1
    13    16    17   ar
    14    17    18   ar
    15    18    19   ar
    16    19    20   ar
    17    20    21   ar
    18    12    13    1
    19    13    14    1
    20     1     2    1
    21     2     3    1
    22     3     4    1
    23     4     5    1
    24     5     6    1
    25     5     7    1
    26     5     8    1
    27    25    26    1
    28    26    27   ar
    29    27    28   ar
    30    28    29   ar
    31    29    30   ar
    32    30    32    1
    33    32    33    1
    34    32    34    1
    35    32    35    1
    36    30    31   ar
    37     8     1    1
    38    31    26   ar
    39    14     9    1
    40    21    16   ar
@<TRIPOS>MOLECULE
*****
 37 40 0 0 0
SMALL
GASTEIGER

@<TRIPOS>ATOM
      1 C         141.9840  141.5178  166.7492 C.3     1  UNL1        0.0688
      2 C         142.7202  140.3441  167.3240 C.3     1  UNL1        0.0485
      3 C         142.6801  140.0836  168.8006 C.3     1  UNL1        0.1433
      4 O         141.9036  140.9967  169.7024 O.3     1  UNL1       -0.3584
      5 C         141.1673  142.1703  169.1277 C.3     1  UNL1        0.0942
      6 C         140.3141  143.4021  169.0572 C.3     1  UNL1        0.0297
      7 C         140.8308  142.3376  170.5798 C.3     1  UNL1        0.0297
      8 C         141.2074  142.4309  167.6510 C.3     1  UNL1        0.0437
      9 N         142.5762  140.9429  165.4966 N.3     1  UNL1       -0.2710
     10 C         143.1729  141.8519  164.4634 C.3     1  UNL1        0.0897
     11 C         143.7651  141.2771  163.2109 C.3     1  UNL1        0.0899
     12 N         143.7605  139.7932  162.9916 N.3     1  UNL1       -0.2665
     13 C         143.1637  138.8842  164.0247 C.3     1  UNL1        0.0899
     14 C         142.5716  139.4590  165.2772 C.3     1  UNL1        0.0897
     15 C         144.3527  139.2184  161.7390 C.3     1  UNL1        0.0992
     16 C         143.5794  139.2633  160.4545 C.ar    1  UNL1       -0.0061
     17 C         142.5211  138.2364  160.1799 C.ar    1  UNL1       -0.0029
     18 C         141.7477  138.2814  158.8954 C.ar    1  UNL1       -0.0003
     19 C         142.0326  139.3533  157.8856 C.ar    1  UNL1       -0.0000
     20 C         143.0909  140.3802  158.1602 C.ar    1  UNL1       -0.0003
     21 C         143.8643  140.3353  159.4446 C.ar    1  UNL1       -0.0029
     22 C         141.4533  142.4918  165.7393 C.3     1  UNL1        0.1143
     23 C         139.1802  143.4854  164.9676 C.2     1  UNL1        0.2304
     24 O         139.6512  144.8579  165.3477 O.2     1  UNL1       -0.2745
     25 N         140.0813  142.3023  165.1635 N.am    1  UNL1       -0.2425
     26 C         139.6103  140.9298  164.7835 C.ar    1  UNL1        0.1373
     27 C         139.7902  140.4376  163.3780 C.ar    1  UNL1        0.0347
     28 C         139.3193  139.0650  162.9980 C.ar    1  UNL1        0.0044
     29 C         138.6684  138.1848  164.0235 C.ar    1  UNL1        0.0232
     30 C         138.4886  138.6771  165.4289 C.ar    1  UNL1        0.1540
     31 N         138.9595  140.0496  165.8090 N.ar    1  UNL1       -0.2263
     32 C         137.8377  137.7968  166.4544 C.3     1  UNL1        0.4349
     33 F         137.1868  136.9166  167.4799 F       1  UNL1       -0.1644
     34 F         138.2886  136.5825  165.6981 F       1  UNL1       -0.1644
     35 F         137.3868  139.0112  167.2107 F       1  UNL1       -0.1644
     36 C         137.5849  143.4562  162.9172 C.3     1  UNL1        0.0101
     37 C         137.8081  143.2960  164.3918 C.3     1  UNL1        0.0857
@<TRIPOS>BOND
     1    36    37    1
     2    37    23    1
     3    23    24    2
     4    23    25   am
     5    25    22    1
     6    22     1    1
     7     1     9    1
     8     9    10    1
     9    10    11    1
    10    11    12    1
    11    12    15    1
    12    15    16    1
    13    16    17   ar
    14    17    18   ar
    15    18    19   ar
    16    19    20   ar
    17    20    21   ar
    18    12    13    1
    19    13    14    1
    20     1     2    1
    21     2     3    1
    22     3     4    1
    23     4     5    1
    24     5     6    1
    25     5     7    1
    26     5     8    1
    27    25    26    1
    28    26    27   ar
    29    27    28   ar
    30    28    29   ar
    31    29    30   ar
    32    30    32    1
    33    32    33    1
    34    32    34    1
    35    32    35    1
    36    30    31   ar
    37     8     1    1
    38    31    26   ar
    39    14     9    1
    40    21    16   ar
@<TRIPOS>MOLECULE
*****
 37 40 0 0 0
SMALL
GASTEIGER

@<TRIPOS>ATOM
      1 C         142.5811  140.4785  161.6933 C.3     1  UNL1        0.0688
      2 C         142.3652  139.1546  162.3644 C.3     1  UNL1        0.0485
      3 C         142.1642  137.9188  161.5382 C.3     1  UNL1        0.1433
      4 O         142.1791  138.0071  160.0408 O.3     1  UNL1       -0.3584
      5 C         142.3950  139.3311  159.3697 C.3     1  UNL1        0.0942
      6 C         142.5611  140.3487  158.2803 C.3     1  UNL1        0.0297
      7 C         142.2517  138.4488  158.1651 C.3     1  UNL1        0.0297
      8 C         142.5959  140.5668  160.1959 C.3     1  UNL1        0.0437
      9 N         142.6494  140.9010  163.1310 N.3     1  UNL1       -0.2710
     10 C         141.5411  140.5359  164.0735 C.3     1  UNL1        0.0897
     11 C         141.6095  140.9584  165.5111 C.3     1  UNL1        0.0899
     12 N         142.7861  141.7461  166.0062 N.3     1  UNL1       -0.2665
     13 C         143.8944  142.1112  165.0637 C.3     1  UNL1        0.0899
     14 C         143.8260  141.6887  163.6261 C.3     1  UNL1        0.0897
     15 C         142.8545  142.1686  167.4439 C.3     1  UNL1        0.0992
     16 C         141.9901  141.4923  168.4662 C.ar    1  UNL1       -0.0061
     17 C         140.6956  142.1215  168.8885 C.ar    1  UNL1       -0.0029
     18 C         139.8312  141.4451  169.9109 C.ar    1  UNL1       -0.0003
     19 C         140.2613  140.1395  170.5111 C.ar    1  UNL1       -0.0000
     20 C         141.5558  139.5102  170.0889 C.ar    1  UNL1       -0.0003
     21 C         142.4202  140.1865  169.0665 C.ar    1  UNL1       -0.0029
     22 C         142.8207  141.9493  161.5214 C.3     1  UNL1        0.1143
     23 C         141.9277  143.7283  159.8518 C.2     1  UNL1        0.2304
     24 O         143.2508  143.7289  159.1450 O.2     1  UNL1       -0.2745
     25 N         141.7127  142.8385  161.0400 N.am    1  UNL1       -0.2425
     26 C         140.3897  142.8378  161.7469 C.ar    1  UNL1        0.1373
     27 C         139.2804  141.9526  161.2613 C.ar    1  UNL1        0.0347
     28 C         137.9573  141.9519  161.9681 C.ar    1  UNL1        0.0044
     29 C         137.7437  142.8365  163.1605 C.ar    1  UNL1        0.0232
     30 C         138.8530  143.7217  163.6460 C.ar    1  UNL1        0.1540
     31 N         140.1760  143.7224  162.9393 N.ar    1  UNL1       -0.2263
     32 C         138.6393  144.6064  164.8385 C.3     1  UNL1        0.4349
     33 F         138.4255  145.4910  166.0309 F       1  UNL1       -0.1644
     34 F         140.0532  145.0950  164.7293 F       1  UNL1       -0.1644
     35 F         137.2253  144.1177  164.9476 F       1  UNL1       -0.1644
     36 C         139.9217  144.1619  158.2587 C.3     1  UNL1        0.0101
     37 C         140.8198  144.6175  159.3703 C.3     1  UNL1        0.0857
@<TRIPOS>BOND
     1    36    37    1
     2    37    23    1
     3    23    24    2
     4    23    25   am
     5    25    22    1
     6    22     1    1
     7     1     9    1
     8     9    10    1
     9    10    11    1
    10    11    12    1
    11    12    15    1
    12    15    16    1
    13    16    17   ar
    14    17    18   ar
    15    18    19   ar
    16    19    20   ar
    17    20    21   ar
    18    12    13    1
    19    13    14    1
    20     1     2    1
    21     2     3    1
    22     3     4    1
    23     4     5    1
    24     5     6    1
    25     5     7    1
    26     5     8    1
    27    25    26    1
    28    26    27   ar
    29    27    28   ar
    30    28    29   ar
    31    29    30   ar
    32    30    32    1
    33    32    33    1
    34    32    34    1
    35    32    35    1
    36    30    31   ar
    37     8     1    1
    38    31    26   ar
    39    14     9    1
    40    21    16   ar
@<TRIPOS>MOLECULE
*****
 37 40 0 0 0
SMALL
GASTEIGER

@<TRIPOS>ATOM
      1 C         141.3105  143.2161  164.2350 C.3     1  UNL1        0.0688
      2 C         142.7874  143.4330  164.0881 C.3     1  UNL1        0.0485
      3 C         143.7116  143.0917  165.2192 C.3     1  UNL1        0.1433
      4 O         143.1589  142.5334  166.4970 O.3     1  UNL1       -0.3584
      5 C         141.6820  142.3166  166.6439 C.3     1  UNL1        0.0942
      6 C         140.3675  141.9351  167.2575 C.3     1  UNL1        0.0297
      7 C         142.1497  141.8427  167.9880 C.3     1  UNL1        0.0297
      8 C         140.7577  142.6579  165.5128 C.3     1  UNL1        0.0437
      9 N         141.3557  143.7653  162.8398 N.3     1  UNL1       -0.2710
     10 C         140.6959  145.0757  162.5278 C.3     1  UNL1        0.0897
     11 C         140.7411  145.6248  161.1327 C.3     1  UNL1        0.0899
     12 N         141.4461  144.8634  160.0495 N.3     1  UNL1       -0.2665
     13 C         142.1058  143.5529  160.3615 C.3     1  UNL1        0.0899
     14 C         142.0606  143.0039  161.7566 C.3     1  UNL1        0.0897
     15 C         141.4913  145.4125  158.6543 C.3     1  UNL1        0.0992
     16 C         140.4181  145.0508  157.6708 C.ar    1  UNL1       -0.0061
     17 C         139.7298  143.7215  157.7669 C.ar    1  UNL1       -0.0029
     18 C         138.6565  143.3598  156.7833 C.ar    1  UNL1       -0.0003
     19 C         138.2716  144.3274  155.7037 C.ar    1  UNL1       -0.0000
     20 C         138.9599  145.6567  155.6077 C.ar    1  UNL1       -0.0003
     21 C         140.0331  146.0184  156.5912 C.ar    1  UNL1       -0.0029
     22 C         139.8492  143.1899  163.8972 C.3     1  UNL1        0.1143
     23 C         138.3701  142.1340  162.0406 C.2     1  UNL1        0.2304
     24 O         138.0856  143.5001  161.4903 O.2     1  UNL1       -0.2745
     25 N         139.2519  141.9789  163.2441 N.am    1  UNL1       -0.2425
     26 C         139.5365  140.6128  163.7944 C.ar    1  UNL1        0.1373
     27 C         140.7393  139.8502  163.3234 C.ar    1  UNL1        0.0347
     28 C         141.0238  138.4840  163.8737 C.ar    1  UNL1        0.0044
     29 C         140.1056  137.8806  164.8949 C.ar    1  UNL1        0.0232
     30 C         138.9029  138.6433  165.3657 C.ar    1  UNL1        0.1540
     31 N         138.6183  140.0094  164.8155 N.ar    1  UNL1       -0.2263
     32 C         137.9846  138.0398  166.3870 C.3     1  UNL1        0.4349
     33 F         137.0664  137.4364  167.4081 F       1  UNL1       -0.1644
     34 F         138.2317  136.6795  165.8052 F       1  UNL1       -0.1644
     35 F         137.7376  139.4002  166.9687 F       1  UNL1       -0.1644
     36 C         138.3805  140.3715  160.1317 C.3     1  UNL1        0.0101
     37 C         137.7729  140.9230  161.3873 C.3     1  UNL1        0.0857
@<TRIPOS>BOND
     1    36    37    1
     2    37    23    1
     3    23    24    2
     4    23    25   am
     5    25    22    1
     6    22     1    1
     7     1     9    1
     8     9    10    1
     9    10    11    1
    10    11    12    1
    11    12    15    1
    12    15    16    1
    13    16    17   ar
    14    17    18   ar
    15    18    19   ar
    16    19    20   ar
    17    20    21   ar
    18    12    13    1
    19    13    14    1
    20     1     2    1
    21     2     3    1
    22     3     4    1
    23     4     5    1
    24     5     6    1
    25     5     7    1
    26     5     8    1
    27    25    26    1
    28    26    27   ar
    29    27    28   ar
    30    28    29   ar
    31    29    30   ar
    32    30    32    1
    33    32    33    1
    34    32    34    1
    35    32    35    1
    36    30    31   ar
    37     8     1    1
    38    31    26   ar
    39    14     9    1
    40    21    16   ar
