@<TRIPOS>MOLECULE
*****
 29 33 0 0 0
SMALL
GASTEIGER

@<TRIPOS>ATOM
      1 C         140.4860  137.7052  162.8468 C.ar    1  UNL1       -0.0059
      2 C         141.8832  137.7636  162.3044 C.ar    1  UNL1        0.0002
      3 C         142.1172  138.1546  160.8752 C.ar    1  UNL1        0.0373
      4 C         140.9538  138.4871  159.9886 C.ar    1  UNL1        0.1477
      5 C         139.5566  138.4287  160.5311 C.ar    1  UNL1        0.0373
      6 C         139.3226  138.0377  161.9602 C.ar    1  UNL1        0.0002
      7 C         140.2520  137.3143  164.2760 C.3     1  UNL1        0.0992
      8 C         140.1935  140.4638  167.4896 C.3     1  UNL1        0.0781
      9 C         138.9080  139.8567  167.0110 C.3     1  UNL1        0.0372
     10 C         138.9276  138.8068  165.9397 C.3     1  UNL1        0.0741
     11 N         140.2325  138.3641  165.3472 N.3     1  UNL1       -0.2689
     12 C         141.5179  138.9712  165.8259 C.3     1  UNL1        0.0741
     13 C         141.4984  140.0210  166.8970 C.3     1  UNL1        0.0372
     14 O         139.2832  140.0219  170.5922 O.2     1  UNL1       -0.2749
     15 C         139.7556  141.3105  169.9869 C.2     1  UNL1        0.2256
     16 C         139.8925  142.6222  170.7013 C.3     1  UNL1        0.0870
     17 C         140.3955  143.6360  169.7169 C.3     1  UNL1        0.0311
     18 C         140.5695  142.9508  168.3939 C.3     1  UNL1        0.0938
     19 N         140.1740  141.5136  168.5608 N.am    1  UNL1       -0.2811
     20 O         141.1878  138.8780  158.5594 O.3     1  UNL1       -0.4313
     21 C         141.4410  137.8219  157.5248 C.ar    1  UNL1        0.2628
     22 N         142.6457  136.9314  157.4504 N.ar    1  UNL1       -0.2050
     23 C         142.4832  136.0300  156.2625 C.ar    1  UNL1        0.0910
     24 C         143.3550  134.9486  155.6963 C.ar    1  UNL1        0.0197
     25 C         142.9217  134.2008  154.4704 C.ar    1  UNL1        0.0016
     26 C         141.6165  134.5343  153.8107 C.ar    1  UNL1        0.0006
     27 C         140.7447  135.6156  154.3768 C.ar    1  UNL1        0.0081
     28 C         141.1780  136.3634  155.6027 C.ar    1  UNL1        0.0515
     29 S         140.5339  137.4709  156.3828 S.2     1  UNL1       -0.0283
@<TRIPOS>BOND
     1    14    15    2
     2    15    16    1
     3    16    17    1
     4    17    18    1
     5    18    19    1
     6    19     8    1
     7     8     9    1
     8     9    10    1
     9    10    11    1
    10    11     7    1
    11     7     1    1
    12     1     2   ar
    13     2     3   ar
    14     3     4   ar
    15     4    20    1
    16    20    21    1
    17    21    22   ar
    18    22    23   ar
    19    23    24   ar
    20    24    25   ar
    21    25    26   ar
    22    26    27   ar
    23    27    28   ar
    24    28    29   ar
    25     4     5   ar
    26     5     6   ar
    27    11    12    1
    28    12    13    1
    29    19    15   am
    30    13     8    1
    31     6     1   ar
    32    29    21   ar
    33    28    23   ar
@<TRIPOS>MOLECULE
*****
 29 33 0 0 0
SMALL
GASTEIGER

@<TRIPOS>ATOM
      1 C         144.7687  140.5942  162.6011 C.ar    1  UNL1       -0.0059
      2 C         144.0367  139.8508  161.5234 C.ar    1  UNL1        0.0002
      3 C         143.7084  140.5359  160.2299 C.ar    1  UNL1        0.0373
      4 C         144.1122  141.9644  160.0142 C.ar    1  UNL1        0.1477
      5 C         144.8442  142.7077  161.0920 C.ar    1  UNL1        0.0373
      6 C         145.1724  142.0227  162.3854 C.ar    1  UNL1        0.0002
      7 C         145.0970  139.9091  163.8945 C.3     1  UNL1        0.0992
      8 C         142.1987  140.0846  167.3325 C.3     1  UNL1        0.0781
      9 C         142.9012  138.7995  167.0086 C.3     1  UNL1        0.0372
     10 C         143.8674  138.7410  165.8626 C.3     1  UNL1        0.0741
     11 N         144.1309  139.9676  165.0405 N.3     1  UNL1       -0.2689
     12 C         143.4284  141.2528  165.3643 C.3     1  UNL1        0.0741
     13 C         142.4623  141.3113  166.5103 C.3     1  UNL1        0.0372
     14 O         142.9057  139.5207  170.4680 O.2     1  UNL1       -0.2749
     15 C         141.5576  139.8839  169.9197 C.2     1  UNL1        0.2256
     16 C         140.2977  140.0517  170.7162 C.3     1  UNL1        0.0870
     17 C         139.1942  140.4146  169.7674 C.3     1  UNL1        0.0311
     18 C         139.7720  140.4711  168.3843 C.3     1  UNL1        0.0938
     19 N         141.2326  140.1431  168.4784 N.am    1  UNL1       -0.2811
     20 O         143.7839  142.6494  158.7208 O.3     1  UNL1       -0.4313
     21 C         144.6939  142.4953  157.5384 C.ar    1  UNL1        0.2628
     22 N         146.1926  142.4478  157.5795 N.ar    1  UNL1       -0.2050
     23 C         146.6900  142.2847  156.1738 C.ar    1  UNL1        0.0910
     24 C         148.0737  142.1779  155.6048 C.ar    1  UNL1        0.0197
     25 C         148.2661  142.0177  154.1258 C.ar    1  UNL1        0.0016
     26 C         147.0748  141.9643  153.2159 C.ar    1  UNL1        0.0006
     27 C         145.6911  142.0711  153.7850 C.ar    1  UNL1        0.0081
     28 C         145.4987  142.2313  155.2639 C.ar    1  UNL1        0.0515
     29 S         144.2651  142.3615  156.1073 S.2     1  UNL1       -0.0283
@<TRIPOS>BOND
     1    14    15    2
     2    15    16    1
     3    16    17    1
     4    17    18    1
     5    18    19    1
     6    19     8    1
     7     8     9    1
     8     9    10    1
     9    10    11    1
    10    11     7    1
    11     7     1    1
    12     1     2   ar
    13     2     3   ar
    14     3     4   ar
    15     4    20    1
    16    20    21    1
    17    21    22   ar
    18    22    23   ar
    19    23    24   ar
    20    24    25   ar
    21    25    26   ar
    22    26    27   ar
    23    27    28   ar
    24    28    29   ar
    25     4     5   ar
    26     5     6   ar
    27    11    12    1
    28    12    13    1
    29    19    15   am
    30    13     8    1
    31     6     1   ar
    32    29    21   ar
    33    28    23   ar
@<TRIPOS>MOLECULE
*****
 29 33 0 0 0
SMALL
GASTEIGER

@<TRIPOS>ATOM
      1 C         138.5065  139.0950  162.6114 C.ar    1  UNL1       -0.0059
      2 C         138.0912  140.3228  163.3664 C.ar    1  UNL1        0.0002
      3 C         138.0891  140.3159  164.8664 C.ar    1  UNL1        0.0373
      4 C         138.5024  139.0813  165.6113 C.ar    1  UNL1        0.1477
      5 C         138.9178  137.8535  164.8562 C.ar    1  UNL1        0.0373
      6 C         138.9198  137.8604  163.3563 C.ar    1  UNL1        0.0002
      7 C         138.5086  139.1018  161.1113 C.3     1  UNL1        0.0992
      8 C         140.4373  142.5002  158.8794 C.3     1  UNL1        0.0781
      9 C         141.2886  141.4410  159.5146 C.3     1  UNL1        0.0372
     10 C         140.6457  140.3082  160.2586 C.3     1  UNL1        0.0741
     11 N         139.1515  140.2346  160.3674 N.3     1  UNL1       -0.2689
     12 C         138.3002  141.2938  159.7322 C.3     1  UNL1        0.0741
     13 C         138.9430  142.4265  158.9883 C.3     1  UNL1        0.0372
     14 O         141.0826  145.4642  160.0826 O.2     1  UNL1       -0.2749
     15 C         141.3768  144.9953  158.6885 C.2     1  UNL1        0.2256
     16 C         142.0193  145.8065  157.6026 C.3     1  UNL1        0.0870
     17 C         142.1197  144.9455  156.3785 C.3     1  UNL1        0.0311
     18 C         141.5394  143.6022  156.7078 C.3     1  UNL1        0.0938
     19 N         141.0802  143.6329  158.1355 N.am    1  UNL1       -0.2811
     20 O         138.5003  139.0745  167.1113 O.3     1  UNL1       -0.4313
     21 C         139.5171  139.8782  167.8664 C.ar    1  UNL1        0.2628
     22 N         139.3449  140.4480  169.2432 N.ar    1  UNL1       -0.2050
     23 C         140.6059  141.1752  169.6050 C.ar    1  UNL1        0.0910
     24 C         141.0106  141.9314  170.8356 C.ar    1  UNL1        0.0197
     25 C         142.3669  142.5674  170.9129 C.ar    1  UNL1        0.0016
     26 C         143.3185  142.4471  169.7596 C.ar    1  UNL1        0.0006
     27 C         142.9138  141.6909  168.5291 C.ar    1  UNL1        0.0081
     28 C         141.5575  141.0550  168.4518 C.ar    1  UNL1        0.0515
     29 S         140.8846  140.2534  167.3773 S.2     1  UNL1       -0.0283
@<TRIPOS>BOND
     1    14    15    2
     2    15    16    1
     3    16    17    1
     4    17    18    1
     5    18    19    1
     6    19     8    1
     7     8     9    1
     8     9    10    1
     9    10    11    1
    10    11     7    1
    11     7     1    1
    12     1     2   ar
    13     2     3   ar
    14     3     4   ar
    15     4    20    1
    16    20    21    1
    17    21    22   ar
    18    22    23   ar
    19    23    24   ar
    20    24    25   ar
    21    25    26   ar
    22    26    27   ar
    23    27    28   ar
    24    28    29   ar
    25     4     5   ar
    26     5     6   ar
    27    11    12    1
    28    12    13    1
    29    19    15   am
    30    13     8    1
    31     6     1   ar
    32    29    21   ar
    33    28    23   ar
@<TRIPOS>MOLECULE
*****
 29 33 0 0 0
SMALL
GASTEIGER

@<TRIPOS>ATOM
      1 C         138.5694  138.7593  163.3394 C.ar    1  UNL1       -0.0059
      2 C         137.8945  139.9722  162.7711 C.ar    1  UNL1        0.0002
      3 C         137.9883  140.2639  161.3026 C.ar    1  UNL1        0.0373
      4 C         138.7570  139.3425  160.4026 C.ar    1  UNL1        0.1477
      5 C         139.4320  138.1294  160.9711 C.ar    1  UNL1        0.0373
      6 C         139.3381  137.8378  162.4394 C.ar    1  UNL1        0.0002
      7 C         138.4756  138.4676  164.8079 C.3     1  UNL1        0.0992
      8 C         140.9571  140.8213  167.7322 C.3     1  UNL1        0.0781
      9 C         141.4116  140.6751  166.3102 C.3     1  UNL1        0.0372
     10 C         140.5843  139.8905  165.3354 C.3     1  UNL1        0.0741
     11 N         139.3028  139.2522  165.7826 N.3     1  UNL1       -0.2689
     12 C         138.8483  139.3984  167.2047 C.3     1  UNL1        0.0741
     13 C         139.6755  140.1830  168.1794 C.3     1  UNL1        0.0372
     14 O         140.0484  143.5658  169.2461 O.2     1  UNL1       -0.2749
     15 C         141.3666  142.8674  169.4029 C.2     1  UNL1        0.2256
     16 C         142.4986  143.3078  170.2830 C.3     1  UNL1        0.0870
     17 C         143.6158  142.3186  170.1311 C.3     1  UNL1        0.0311
     18 C         143.1744  141.2667  169.1571 C.3     1  UNL1        0.0938
     19 N         141.7843  141.6059  168.7070 N.am    1  UNL1       -0.2811
     20 O         138.8508  139.6340  158.9343 O.3     1  UNL1       -0.4313
     21 C         139.8112  138.8645  158.0767 C.ar    1  UNL1        0.2628
     22 N         139.4759  137.6755  157.2258 N.ar    1  UNL1       -0.2050
     23 C         140.7329  137.2250  156.5426 C.ar    1  UNL1        0.0910
     24 C         141.0085  136.1033  155.5856 C.ar    1  UNL1        0.0197
     25 C         142.3963  135.8922  155.0573 C.ar    1  UNL1        0.0016
     26 C         143.5086  136.8027  155.4858 C.ar    1  UNL1        0.0006
     27 C         143.2331  137.9244  156.4428 C.ar    1  UNL1        0.0081
     28 C         141.8453  138.1355  156.9712 C.ar    1  UNL1        0.0515
     29 S         141.2756  139.1488  157.9193 S.2     1  UNL1       -0.0283
@<TRIPOS>BOND
     1    14    15    2
     2    15    16    1
     3    16    17    1
     4    17    18    1
     5    18    19    1
     6    19     8    1
     7     8     9    1
     8     9    10    1
     9    10    11    1
    10    11     7    1
    11     7     1    1
    12     1     2   ar
    13     2     3   ar
    14     3     4   ar
    15     4    20    1
    16    20    21    1
    17    21    22   ar
    18    22    23   ar
    19    23    24   ar
    20    24    25   ar
    21    25    26   ar
    22    26    27   ar
    23    27    28   ar
    24    28    29   ar
    25     4     5   ar
    26     5     6   ar
    27    11    12    1
    28    12    13    1
    29    19    15   am
    30    13     8    1
    31     6     1   ar
    32    29    21   ar
    33    28    23   ar
@<TRIPOS>MOLECULE
*****
 29 33 0 0 0
SMALL
GASTEIGER

@<TRIPOS>ATOM
      1 C         136.0302  141.8683  155.7142 C.ar    1  UNL1       -0.0059
      2 C         136.6489  143.2279  155.5776 C.ar    1  UNL1        0.0002
      3 C         137.8212  143.6078  156.4330 C.ar    1  UNL1        0.0373
      4 C         138.3746  142.6281  157.4249 C.ar    1  UNL1        0.1477
      5 C         137.7558  141.2685  157.5614 C.ar    1  UNL1        0.0373
      6 C         136.5836  140.8886  156.7061 C.ar    1  UNL1        0.0002
      7 C         134.8580  141.4883  154.8588 C.3     1  UNL1        0.0992
      8 C         131.4117  139.2129  156.6465 C.3     1  UNL1        0.0781
      9 C         131.2136  140.6210  156.1691 C.3     1  UNL1        0.0372
     10 C         132.3624  141.3795  155.5731 C.3     1  UNL1        0.0741
     11 N         133.7092  140.7299  155.4547 N.3     1  UNL1       -0.2689
     12 C         133.9073  139.3218  155.9322 C.3     1  UNL1        0.0741
     13 C         132.7586  138.5633  156.5281 C.3     1  UNL1        0.0372
     14 O         129.0698  137.6616  154.9857 O.2     1  UNL1       -0.2749
     15 C         129.1865  137.7414  156.4791 C.2     1  UNL1        0.2256
     16 C         128.2474  137.1221  157.4712 C.3     1  UNL1        0.0870
     17 C         128.7433  137.4525  158.8477 C.3     1  UNL1        0.0311
     18 C         129.9891  138.2759  158.7063 C.3     1  UNL1        0.0938
     19 N         130.2630  138.4545  157.2424 N.am    1  UNL1       -0.2811
     20 O         139.5468  143.0080  158.2803 O.3     1  UNL1       -0.4313
     21 C         139.3430  143.3332  159.7303 C.ar    1  UNL1        0.2628
     22 N         138.2213  142.8399  160.5954 N.ar    1  UNL1       -0.2050
     23 C         138.4102  143.4107  161.9696 C.ar    1  UNL1        0.0910
     24 C         137.6145  143.2693  163.2333 C.ar    1  UNL1        0.0197
     25 C         138.0573  143.9740  164.4812 C.ar    1  UNL1        0.0016
     26 C         139.2958  144.8201  164.4654 C.ar    1  UNL1        0.0006
     27 C         140.0915  144.9614  163.2018 C.ar    1  UNL1        0.0081
     28 C         139.6487  144.2567  161.9539 C.ar    1  UNL1        0.0515
     29 S         140.2252  144.2089  160.5699 S.2     1  UNL1       -0.0283
@<TRIPOS>BOND
     1    14    15    2
     2    15    16    1
     3    16    17    1
     4    17    18    1
     5    18    19    1
     6    19     8    1
     7     8     9    1
     8     9    10    1
     9    10    11    1
    10    11     7    1
    11     7     1    1
    12     1     2   ar
    13     2     3   ar
    14     3     4   ar
    15     4    20    1
    16    20    21    1
    17    21    22   ar
    18    22    23   ar
    19    23    24   ar
    20    24    25   ar
    21    25    26   ar
    22    26    27   ar
    23    27    28   ar
    24    28    29   ar
    25     4     5   ar
    26     5     6   ar
    27    11    12    1
    28    12    13    1
    29    19    15   am
    30    13     8    1
    31     6     1   ar
    32    29    21   ar
    33    28    23   ar
@<TRIPOS>MOLECULE
*****
 29 33 0 0 0
SMALL
GASTEIGER

@<TRIPOS>ATOM
      1 C         140.7079  138.7980  160.0714 C.ar    1  UNL1       -0.0059
      2 C         139.2863  139.2194  160.2976 C.ar    1  UNL1        0.0002
      3 C         138.6427  139.0001  161.6347 C.ar    1  UNL1        0.0373
      4 C         139.4208  138.3593  162.7455 C.ar    1  UNL1        0.1477
      5 C         140.8426  137.9378  162.5192 C.ar    1  UNL1        0.0373
      6 C         141.4861  138.1572  161.1822 C.ar    1  UNL1        0.0002
      7 C         141.3515  139.0174  158.7343 C.3     1  UNL1        0.0992
      8 C         141.7750  135.5883  155.8513 C.3     1  UNL1        0.0781
      9 C         140.5442  136.4452  155.8219 C.3     1  UNL1        0.0372
     10 C         140.4031  137.5883  156.7830 C.3     1  UNL1        0.0741
     11 N         141.4927  137.8744  157.7733 N.3     1  UNL1       -0.2689
     12 C         142.7235  137.0174  157.8027 C.3     1  UNL1        0.0741
     13 C         142.8646  135.8744  156.8417 C.3     1  UNL1        0.0372
     14 O         142.2827  132.4645  156.6474 O.2     1  UNL1       -0.2749
     15 C         142.1496  133.0094  155.2562 C.2     1  UNL1        0.2256
     16 C         142.2264  132.2142  153.9867 C.3     1  UNL1        0.0870
     17 C         142.0405  133.1585  152.8362 C.3     1  UNL1        0.0311
     18 C         141.8488  134.5374  153.3947 C.3     1  UNL1        0.0938
     19 N         141.9162  134.4452  154.8903 N.am    1  UNL1       -0.2811
     20 O         138.7773  138.1399  164.0826 O.3     1  UNL1       -0.4313
     21 C         139.1178  139.0375  165.2351 C.ar    1  UNL1        0.2628
     22 N         138.8220  138.7670  166.6806 N.ar    1  UNL1       -0.2050
     23 C         139.3353  139.9255  167.4834 C.ar    1  UNL1        0.0910
     24 C         139.3237  140.2096  168.9562 C.ar    1  UNL1        0.0197
     25 C         139.9250  141.4801  169.4797 C.ar    1  UNL1        0.0016
     26 C         140.5380  142.4666  168.5304 C.ar    1  UNL1        0.0006
     27 C         140.5496  142.1825  167.0576 C.ar    1  UNL1        0.0081
     28 C         139.9482  140.9120  166.5341 C.ar    1  UNL1        0.0515
     29 S         139.8138  140.3631  165.1446 S.2     1  UNL1       -0.0283
@<TRIPOS>BOND
     1    14    15    2
     2    15    16    1
     3    16    17    1
     4    17    18    1
     5    18    19    1
     6    19     8    1
     7     8     9    1
     8     9    10    1
     9    10    11    1
    10    11     7    1
    11     7     1    1
    12     1     2   ar
    13     2     3   ar
    14     3     4   ar
    15     4    20    1
    16    20    21    1
    17    21    22   ar
    18    22    23   ar
    19    23    24   ar
    20    24    25   ar
    21    25    26   ar
    22    26    27   ar
    23    27    28   ar
    24    28    29   ar
    25     4     5   ar
    26     5     6   ar
    27    11    12    1
    28    12    13    1
    29    19    15   am
    30    13     8    1
    31     6     1   ar
    32    29    21   ar
    33    28    23   ar
@<TRIPOS>MOLECULE
*****
 29 33 0 0 0
SMALL
GASTEIGER

@<TRIPOS>ATOM
      1 C         140.5436  139.0688  160.3860 C.ar    1  UNL1       -0.0059
      2 C         140.0515  138.8577  158.9849 C.ar    1  UNL1        0.0002
      3 C         140.9356  138.1930  157.9716 C.ar    1  UNL1        0.0373
      4 C         142.3117  137.7393  158.3596 C.ar    1  UNL1        0.1477
      5 C         142.8038  137.9504  159.7608 C.ar    1  UNL1        0.0373
      6 C         141.9197  138.6151  160.7740 C.ar    1  UNL1        0.0002
      7 C         139.6595  139.7335  161.3993 C.3     1  UNL1        0.0992
      8 C         140.8644  139.8053  165.7344 C.3     1  UNL1        0.0781
      9 C         141.1619  140.9825  164.8537 C.3     1  UNL1        0.0372
     10 C         140.7603  140.9586  163.4086 C.3     1  UNL1        0.0741
     11 N         140.0612  139.7574  162.8443 N.3     1  UNL1       -0.2689
     12 C         139.7636  138.5802  163.7250 C.3     1  UNL1        0.0741
     13 C         140.1653  138.6041  165.1700 C.3     1  UNL1        0.0372
     14 O         138.8439  139.6186  168.2902 O.2     1  UNL1       -0.2749
     15 C         140.3373  139.7434  168.3542 C.2     1  UNL1        0.2256
     16 C         141.1642  139.8043  169.6041 C.3     1  UNL1        0.0870
     17 C         142.6040  139.9278  169.2019 C.3     1  UNL1        0.0311
     18 C         142.6669  139.9431  167.7034 C.3     1  UNL1        0.0938
     19 N         141.2660  139.8292  167.1794 N.am    1  UNL1       -0.2811
     20 O         143.1957  137.0746  157.3464 O.3     1  UNL1       -0.4313
     21 C         142.9297  135.6572  156.9338 C.ar    1  UNL1        0.2628
     22 N         143.5679  134.4334  157.5212 N.ar    1  UNL1       -0.2050
     23 C         143.0114  133.2346  156.8119 C.ar    1  UNL1        0.0910
     24 C         143.2721  131.7657  156.9675 C.ar    1  UNL1        0.0197
     25 C         142.5507  130.7796  156.0973 C.ar    1  UNL1        0.0016
     26 C         141.5686  131.2625  155.0715 C.ar    1  UNL1        0.0006
     27 C         141.3080  132.7315  154.9158 C.ar    1  UNL1        0.0081
     28 C         142.0294  133.7175  155.7860 C.ar    1  UNL1        0.0515
     29 S         141.9789  135.2147  155.8614 S.2     1  UNL1       -0.0283
@<TRIPOS>BOND
     1    14    15    2
     2    15    16    1
     3    16    17    1
     4    17    18    1
     5    18    19    1
     6    19     8    1
     7     8     9    1
     8     9    10    1
     9    10    11    1
    10    11     7    1
    11     7     1    1
    12     1     2   ar
    13     2     3   ar
    14     3     4   ar
    15     4    20    1
    16    20    21    1
    17    21    22   ar
    18    22    23   ar
    19    23    24   ar
    20    24    25   ar
    21    25    26   ar
    22    26    27   ar
    23    27    28   ar
    24    28    29   ar
    25     4     5   ar
    26     5     6   ar
    27    11    12    1
    28    12    13    1
    29    19    15   am
    30    13     8    1
    31     6     1   ar
    32    29    21   ar
    33    28    23   ar
@<TRIPOS>MOLECULE
*****
 29 33 0 0 0
SMALL
GASTEIGER

@<TRIPOS>ATOM
      1 C         144.3615  139.8123  162.4351 C.ar    1  UNL1       -0.0059
      2 C         143.8748  138.5892  161.7160 C.ar    1  UNL1        0.0002
      3 C         143.3977  138.6931  160.2976 C.ar    1  UNL1        0.0373
      4 C         143.4073  140.0202  159.5984 C.ar    1  UNL1        0.1477
      5 C         143.8940  141.2433  160.3176 C.ar    1  UNL1        0.0373
      6 C         144.3711  141.1394  161.7359 C.ar    1  UNL1        0.0002
      7 C         144.8386  139.7084  163.8534 C.3     1  UNL1        0.0992
      8 C         142.0126  140.5730  167.2470 C.3     1  UNL1        0.0781
      9 C         142.4144  141.6710  166.3073 C.3     1  UNL1        0.0372
     10 C         143.3565  141.3828  165.1761 C.3     1  UNL1        0.0741
     11 N         143.8966  139.9966  164.9846 N.3     1  UNL1       -0.2689
     12 C         143.4948  138.8986  165.9242 C.3     1  UNL1        0.0741
     13 C         142.5528  139.1868  167.0554 C.3     1  UNL1        0.0372
     14 O         142.4057  142.8683  169.5332 O.2     1  UNL1       -0.2749
     15 C         141.2513  141.9162  169.4290 C.2     1  UNL1        0.2256
     16 C         140.0748  141.8519  170.3573 C.3     1  UNL1        0.0870
     17 C         139.1671  140.7572  169.8803 C.3     1  UNL1        0.0311
     18 C         139.7825  140.1449  168.6570 C.3     1  UNL1        0.0938
     19 N         141.0706  140.8612  168.3781 N.am    1  UNL1       -0.2811
     20 O         142.9303  140.1241  158.1801 O.3     1  UNL1       -0.4313
     21 C         142.7336  138.8823  157.3621 C.ar    1  UNL1        0.2628
     22 N         143.8192  138.0571  156.7371 N.ar    1  UNL1       -0.2050
     23 C         143.1734  136.9124  156.0141 C.ar    1  UNL1        0.0910
     24 C         143.7455  135.7782  155.2166 C.ar    1  UNL1        0.0197
     25 C         142.8328  134.7616  154.5972 C.ar    1  UNL1        0.0016
     26 C         141.3481  134.8794  154.7753 C.ar    1  UNL1        0.0006
     27 C         140.7760  136.0137  155.5728 C.ar    1  UNL1        0.0081
     28 C         141.6887  137.0302  156.1922 C.ar    1  UNL1        0.0515
     29 S         141.4169  138.2476  157.0253 S.2     1  UNL1       -0.0283
@<TRIPOS>BOND
     1    14    15    2
     2    15    16    1
     3    16    17    1
     4    17    18    1
     5    18    19    1
     6    19     8    1
     7     8     9    1
     8     9    10    1
     9    10    11    1
    10    11     7    1
    11     7     1    1
    12     1     2   ar
    13     2     3   ar
    14     3     4   ar
    15     4    20    1
    16    20    21    1
    17    21    22   ar
    18    22    23   ar
    19    23    24   ar
    20    24    25   ar
    21    25    26   ar
    22    26    27   ar
    23    27    28   ar
    24    28    29   ar
    25     4     5   ar
    26     5     6   ar
    27    11    12    1
    28    12    13    1
    29    19    15   am
    30    13     8    1
    31     6     1   ar
    32    29    21   ar
    33    28    23   ar
@<TRIPOS>MOLECULE
*****
 29 33 0 0 0
SMALL
GASTEIGER

@<TRIPOS>ATOM
      1 C         138.7456  138.8745  162.3079 C.ar    1  UNL1       -0.0059
      2 C         139.4520  138.2925  161.1196 C.ar    1  UNL1        0.0002
      3 C         139.5810  139.0930  159.8575 C.ar    1  UNL1        0.0373
      4 C         139.0035  140.4754  159.7838 C.ar    1  UNL1        0.1477
      5 C         138.2970  141.0574  160.9723 C.ar    1  UNL1        0.0373
      6 C         138.1681  140.2569  162.2342 C.ar    1  UNL1        0.0002
      7 C         138.6166  138.0741  163.5700 C.3     1  UNL1        0.0992
      8 C         140.0945  139.7667  167.4688 C.3     1  UNL1        0.0781
      9 C         138.6759  139.2952  167.3456 C.3     1  UNL1        0.0372
     10 C         138.1832  138.7310  166.0459 C.3     1  UNL1        0.0741
     11 N         139.1092  138.6383  164.8695 N.3     1  UNL1       -0.2689
     12 C         140.5279  139.1097  164.9928 C.3     1  UNL1        0.0741
     13 C         141.0205  139.6739  166.2923 C.3     1  UNL1        0.0372
     14 O         142.8765  138.9666  168.9754 O.2     1  UNL1       -0.2749
     15 C         141.8659  139.9631  169.4609 C.2     1  UNL1        0.2256
     16 C         141.9566  140.7668  170.7241 C.3     1  UNL1        0.0870
     17 C         140.7339  141.6313  170.8123 C.3     1  UNL1        0.0311
     18 C         139.8876  141.3618  169.6036 C.3     1  UNL1        0.0938
     19 N         140.5872  140.3308  168.7684 N.am    1  UNL1       -0.2811
     20 O         139.1324  141.2758  158.5219 O.3     1  UNL1       -0.4313
     21 C         138.0262  141.2626  157.5090 C.ar    1  UNL1        0.2628
     22 N         136.7230  140.5307  157.6361 N.ar    1  UNL1       -0.2050
     23 C         135.9203  140.7946  156.3968 C.ar    1  UNL1        0.0910
     24 C         134.5587  140.3356  155.9662 C.ar    1  UNL1        0.0197
     25 C         134.0042  140.7716  154.6424 C.ar    1  UNL1        0.0016
     26 C         134.8112  141.6667  153.7493 C.ar    1  UNL1        0.0006
     27 C         136.1727  142.1257  154.1799 C.ar    1  UNL1        0.0081
     28 C         136.7273  141.6896  155.5037 C.ar    1  UNL1        0.0515
     29 S         138.0288  141.9788  156.1910 S.2     1  UNL1       -0.0283
@<TRIPOS>BOND
     1    14    15    2
     2    15    16    1
     3    16    17    1
     4    17    18    1
     5    18    19    1
     6    19     8    1
     7     8     9    1
     8     9    10    1
     9    10    11    1
    10    11     7    1
    11     7     1    1
    12     1     2   ar
    13     2     3   ar
    14     3     4   ar
    15     4    20    1
    16    20    21    1
    17    21    22   ar
    18    22    23   ar
    19    23    24   ar
    20    24    25   ar
    21    25    26   ar
    22    26    27   ar
    23    27    28   ar
    24    28    29   ar
    25     4     5   ar
    26     5     6   ar
    27    11    12    1
    28    12    13    1
    29    19    15   am
    30    13     8    1
    31     6     1   ar
    32    29    21   ar
    33    28    23   ar
