@<TRIPOS>MOLECULE
*****
 21 23 0 0 0
SMALL
GASTEIGER

@<TRIPOS>ATOM
      1 C         140.8361  140.0049  168.7720 C.ar    1  UNL1        0.1498
      2 C         142.2889  139.7337  168.5155 C.ar    1  UNL1        0.0389
      3 C         142.7529  139.3778  167.1342 C.ar    1  UNL1        0.0174
      4 C         141.7642  139.2930  166.0095 C.ar    1  UNL1        0.0450
      5 C         140.3114  139.5641  166.2660 C.ar    1  UNL1       -0.0035
      6 C         139.8473  139.9200  167.6473 C.ar    1  UNL1        0.0347
      7 C         139.5742  139.4058  164.9692 C.3     1  UNL1        0.0525
      8 C         138.5770  139.7747  166.0271 C.3     1  UNL1        0.0075
      9 C         138.2209  139.4756  164.3262 C.3     1  UNL1        0.0244
     10 C         138.3817  139.1498  162.8709 C.3     1  UNL1        0.0740
     11 N         139.8345  138.8787  162.6144 N.3     1  UNL1       -0.2567
     12 C         140.4433  138.5134  161.2931 C.3     1  UNL1        0.0909
     13 C         140.5715  139.0369  163.9112 C.3     1  UNL1        0.1380
     14 N         141.9250  138.9672  164.5541 N.pl3   1  UNL1       -0.2945
     15 C         143.2131  138.6307  163.8631 C.3     1  UNL1        0.1134
     16 O         140.3720  140.3608  170.1533 O.3     1  UNL1       -0.4103
     17 C         140.3790  144.3285  170.0690 C.3     1  UNL1        0.1140
     18 N         140.3410  142.9011  169.6095 N.am    1  UNL1       -0.2686
     19 C         140.4101  141.7882  170.6128 C.2     1  UNL1        0.4062
     20 O         140.5172  142.1027  172.0755 O.2     1  UNL1       -0.2260
     21 H         140.2707  142.6947  168.6494 H       1  UNL1        0.1528
@<TRIPOS>BOND
     1    17    18    1
     2    18    19   am
     3    19    20    2
     4    19    16    1
     5    16     1    1
     6     1     2   ar
     7     2     3   ar
     8     3     4   ar
     9     4     5   ar
    10     5     6   ar
    11     5     7    1
    12     7     8    1
    13     7     9    1
    14     9    10    1
    15    10    11    1
    16    11    12    1
    17    13    11    1
    18    13    14    1
    19    14    15    1
    20     6     1   ar
    21    13     7    1
    22    14     4    1
    23    18    21    1
@<TRIPOS>MOLECULE
*****
 21 23 0 0 0
SMALL
GASTEIGER

@<TRIPOS>ATOM
      1 C         140.6413  140.0198  168.6723 C.ar    1  UNL1        0.1498
      2 C         139.2084  139.8435  168.2655 C.ar    1  UNL1        0.0389
      3 C         138.8713  139.4513  166.8574 C.ar    1  UNL1        0.0174
      4 C         139.9672  139.2355  165.8562 C.ar    1  UNL1        0.0450
      5 C         141.4001  139.4118  166.2631 C.ar    1  UNL1       -0.0035
      6 C         141.7372  139.8040  167.6711 C.ar    1  UNL1        0.0347
      7 C         142.2597  139.1324  165.0658 C.3     1  UNL1        0.0525
      8 C         143.1614  139.4814  166.2126 C.3     1  UNL1        0.0075
      9 C         143.6764  139.0687  164.5774 C.3     1  UNL1        0.0244
     10 C         143.6503  138.6804  163.1288 C.3     1  UNL1        0.0740
     11 N         142.2173  138.5041  162.7219 N.3     1  UNL1       -0.2567
     12 C         141.7295  138.1164  161.3575 C.3     1  UNL1        0.0909
     13 C         141.3579  138.7834  163.9191 C.3     1  UNL1        0.1380
     14 N         139.9411  138.8471  164.4076 N.pl3   1  UNL1       -0.2945
     15 C         138.7136  138.5710  163.5909 C.3     1  UNL1        0.1134
     16 O         140.9784  140.4120  170.0803 O.3     1  UNL1       -0.4103
     17 C         140.3710  144.3335  170.0259 C.3     1  UNL1        0.1140
     18 N         140.6269  142.9321  169.5559 N.am    1  UNL1       -0.2686
     19 C         140.7225  141.8132  170.5503 C.2     1  UNL1        0.4062
     20 O         140.5623  142.0957  172.0148 O.2     1  UNL1       -0.2260
     21 H         140.7321  142.7468  168.5947 H       1  UNL1        0.1528
@<TRIPOS>BOND
     1    17    18    1
     2    18    19   am
     3    19    20    2
     4    19    16    1
     5    16     1    1
     6     1     2   ar
     7     2     3   ar
     8     3     4   ar
     9     4     5   ar
    10     5     6   ar
    11     5     7    1
    12     7     8    1
    13     7     9    1
    14     9    10    1
    15    10    11    1
    16    11    12    1
    17    13    11    1
    18    13    14    1
    19    14    15    1
    20     6     1   ar
    21    13     7    1
    22    14     4    1
    23    18    21    1
@<TRIPOS>MOLECULE
*****
 21 23 0 0 0
SMALL
GASTEIGER

@<TRIPOS>ATOM
      1 C         139.0839  139.4313  167.3802 C.ar    1  UNL1        0.1498
      2 C         138.1098  138.9201  166.3605 C.ar    1  UNL1        0.0389
      3 C         138.5874  138.5456  164.9888 C.ar    1  UNL1        0.0174
      4 C         140.0391  138.6822  164.6368 C.ar    1  UNL1        0.0450
      5 C         141.0132  139.1933  165.6566 C.ar    1  UNL1       -0.0035
      6 C         140.5355  139.5678  167.0283 C.ar    1  UNL1        0.0347
      7 C         142.3736  139.2206  165.0252 C.3     1  UNL1        0.0525
      8 C         142.5070  139.7149  166.4352 C.3     1  UNL1        0.0075
      9 C         143.8164  139.5533  165.2653 C.3     1  UNL1        0.0244
     10 C         144.5748  139.2648  164.0037 C.3     1  UNL1        0.0740
     11 N         143.6007  138.7536  162.9840 N.3     1  UNL1       -0.2567
     12 C         143.9293  138.3421  161.5795 C.3     1  UNL1        0.0909
     13 C         142.2403  138.7264  163.6153 C.3     1  UNL1        0.1380
     14 N         140.7975  138.3936  163.3753 N.pl3   1  UNL1       -0.2945
     15 C         140.2153  137.8650  162.0979 C.3     1  UNL1        0.1134
     16 O         138.6062  139.8058  168.7519 O.3     1  UNL1       -0.4103
     17 C         140.8292  142.3732  170.8054 C.3     1  UNL1        0.1140
     18 N         139.8622  141.8252  169.7981 N.am    1  UNL1       -0.2686
     19 C         139.5732  140.3538  169.7592 C.2     1  UNL1        0.4062
     20 O         140.2514  139.4304  170.7275 O.2     1  UNL1       -0.2260
     21 H         139.4171  142.4313  169.1626 H       1  UNL1        0.1528
@<TRIPOS>BOND
     1    17    18    1
     2    18    19   am
     3    19    20    2
     4    19    16    1
     5    16     1    1
     6     1     2   ar
     7     2     3   ar
     8     3     4   ar
     9     4     5   ar
    10     5     6   ar
    11     5     7    1
    12     7     8    1
    13     7     9    1
    14     9    10    1
    15    10    11    1
    16    11    12    1
    17    13    11    1
    18    13    14    1
    19    14    15    1
    20     6     1   ar
    21    13     7    1
    22    14     4    1
    23    18    21    1
@<TRIPOS>MOLECULE
*****
 21 23 0 0 0
SMALL
GASTEIGER

@<TRIPOS>ATOM
      1 C         139.2636  139.9631  167.5900 C.ar    1  UNL1        0.1498
      2 C         138.3972  139.0588  166.7646 C.ar    1  UNL1        0.0389
      3 C         138.1402  139.3781  165.3216 C.ar    1  UNL1        0.0174
      4 C         138.7498  140.6016  164.7041 C.ar    1  UNL1        0.0450
      5 C         139.6162  141.5059  165.5296 C.ar    1  UNL1       -0.0035
      6 C         139.8731  141.1867  166.9725 C.ar    1  UNL1        0.0347
      7 C         140.0777  142.6326  164.6533 C.3     1  UNL1        0.0525
      8 C         140.6590  142.8407  166.0203 C.3     1  UNL1        0.0075
      9 C         140.8983  143.8877  164.6219 C.3     1  UNL1        0.0244
     10 C         140.8242  144.4555  163.2355 C.3     1  UNL1        0.0740
     11 N         139.9577  143.5511  162.4100 N.3     1  UNL1       -0.2567
     12 C         139.6131  143.7402  160.9624 C.3     1  UNL1        0.0909
     13 C         139.4964  142.4245  163.2863 C.3     1  UNL1        0.1380
     14 N         138.6757  141.1693  163.3177 N.pl3   1  UNL1       -0.2945
     15 C         137.9145  140.5845  162.1651 C.3     1  UNL1        0.1134
     16 O         139.5205  139.6439  169.0330 O.3     1  UNL1       -0.4103
     17 C         141.8964  141.9713  171.1982 C.3     1  UNL1        0.1140
     18 N         141.4393  140.8928  170.2612 N.am    1  UNL1       -0.2686
     19 C         139.9777  140.7224  169.9698 C.2     1  UNL1        0.4062
     20 O         138.9734  141.6305  170.6153 O.2     1  UNL1       -0.2260
     21 H         142.0984  140.2967  169.8376 H       1  UNL1        0.1528
@<TRIPOS>BOND
     1    17    18    1
     2    18    19   am
     3    19    20    2
     4    19    16    1
     5    16     1    1
     6     1     2   ar
     7     2     3   ar
     8     3     4   ar
     9     4     5   ar
    10     5     6   ar
    11     5     7    1
    12     7     8    1
    13     7     9    1
    14     9    10    1
    15    10    11    1
    16    11    12    1
    17    13    11    1
    18    13    14    1
    19    14    15    1
    20     6     1   ar
    21    13     7    1
    22    14     4    1
    23    18    21    1
@<TRIPOS>MOLECULE
*****
 21 23 0 0 0
SMALL
GASTEIGER

@<TRIPOS>ATOM
      1 C         138.5048  139.1032  166.3345 C.ar    1  UNL1        0.1498
      2 C         138.8048  137.7932  165.6683 C.ar    1  UNL1        0.0389
      3 C         138.9146  137.7194  164.1741 C.ar    1  UNL1        0.0174
      4 C         138.7245  138.9556  163.3462 C.ar    1  UNL1        0.0450
      5 C         138.4245  140.2657  164.0123 C.ar    1  UNL1       -0.0035
      6 C         138.3147  140.3395  165.5065 C.ar    1  UNL1        0.0347
      7 C         138.2878  141.3089  162.9431 C.3     1  UNL1        0.0525
      8 C         138.0723  141.9742  164.2701 C.3     1  UNL1        0.0075
      9 C         138.0179  142.7631  162.6940 C.3     1  UNL1        0.0244
     10 C         138.0665  142.9966  161.2131 C.3     1  UNL1        0.0740
     11 N         138.3664  141.6866  160.5470 N.3     1  UNL1       -0.2567
     12 C         138.5053  141.4595  159.0707 C.3     1  UNL1        0.0909
     13 C         138.5032  140.6435  161.6162 C.3     1  UNL1        0.1380
     14 N         138.7731  139.1891  161.8653 N.pl3   1  UNL1       -0.2945
     15 C         139.0441  138.1506  160.8174 C.3     1  UNL1        0.1134
     16 O         138.3949  139.1771  167.8286 O.3     1  UNL1       -0.4103
     17 C         140.4434  140.5882  170.9210 C.3     1  UNL1        0.1140
     18 N         139.3721  139.9059  170.1229 N.am    1  UNL1       -0.2686
     19 C         139.4662  139.8593  168.6266 C.2     1  UNL1        0.4062
     20 O         140.6318  140.4949  167.9283 O.2     1  UNL1       -0.2260
     21 H         138.6071  139.4887  170.5813 H       1  UNL1        0.1528
@<TRIPOS>BOND
     1    17    18    1
     2    18    19   am
     3    19    20    2
     4    19    16    1
     5    16     1    1
     6     1     2   ar
     7     2     3   ar
     8     3     4   ar
     9     4     5   ar
    10     5     6   ar
    11     5     7    1
    12     7     8    1
    13     7     9    1
    14     9    10    1
    15    10    11    1
    16    11    12    1
    17    13    11    1
    18    13    14    1
    19    14    15    1
    20     6     1   ar
    21    13     7    1
    22    14     4    1
    23    18    21    1
@<TRIPOS>MOLECULE
*****
 21 23 0 0 0
SMALL
GASTEIGER

@<TRIPOS>ATOM
      1 C         139.0567  138.2743  165.1067 C.ar    1  UNL1        0.1498
      2 C         138.0185  138.1994  166.1867 C.ar    1  UNL1        0.0389
      3 C         138.1937  138.9866  167.4514 C.ar    1  UNL1        0.0174
      4 C         139.4072  139.8487  167.6361 C.ar    1  UNL1        0.0450
      5 C         140.4455  139.9236  166.5562 C.ar    1  UNL1       -0.0035
      6 C         140.2702  139.1364  165.2914 C.ar    1  UNL1        0.0347
      7 C         141.5290  140.8524  167.0183 C.3     1  UNL1        0.0525
      8 C         141.8976  140.3533  165.6527 C.3     1  UNL1        0.0075
      9 C         142.8402  141.4726  166.6365 C.3     1  UNL1        0.0244
     10 C         143.2819  142.3551  167.7661 C.3     1  UNL1        0.0740
     11 N         142.2437  142.2803  168.8461 N.3     1  UNL1       -0.2567
     12 C         142.2821  143.0066  170.1579 C.3     1  UNL1        0.0909
     13 C         141.1603  141.3515  168.3839 C.3     1  UNL1        0.1380
     14 N         139.8490  140.7312  168.7657 N.pl3   1  UNL1       -0.2945
     15 C         139.1093  140.9542  170.0515 C.3     1  UNL1        0.1134
     16 O         138.8814  137.4870  163.8419 O.3     1  UNL1       -0.4103
     17 C         139.8386  138.6523  160.1709 C.3     1  UNL1        0.1140
     18 N         139.8924  137.9455  161.4929 N.am    1  UNL1       -0.2686
     19 C         138.8277  138.1938  162.5200 C.2     1  UNL1        0.4062
     20 O         137.7092  139.1488  162.2250 O.2     1  UNL1       -0.2260
     21 H         140.6265  137.3187  161.6865 H       1  UNL1        0.1528
@<TRIPOS>BOND
     1    17    18    1
     2    18    19   am
     3    19    20    2
     4    19    16    1
     5    16     1    1
     6     1     2   ar
     7     2     3   ar
     8     3     4   ar
     9     4     5   ar
    10     5     6   ar
    11     5     7    1
    12     7     8    1
    13     7     9    1
    14     9    10    1
    15    10    11    1
    16    11    12    1
    17    13    11    1
    18    13    14    1
    19    14    15    1
    20     6     1   ar
    21    13     7    1
    22    14     4    1
    23    18    21    1
@<TRIPOS>MOLECULE
*****
 21 23 0 0 0
SMALL
GASTEIGER

@<TRIPOS>ATOM
      1 C         142.5646  140.5482  168.5430 C.ar    1  UNL1        0.1498
      2 C         142.9695  141.9841  168.3879 C.ar    1  UNL1        0.0389
      3 C         143.3465  142.5153  167.0367 C.ar    1  UNL1        0.0174
      4 C         143.3185  141.6105  165.8406 C.ar    1  UNL1        0.0450
      5 C         142.9136  140.1746  165.9958 C.ar    1  UNL1       -0.0035
      6 C         142.5366  139.6434  167.3470 C.ar    1  UNL1        0.0347
      7 C         142.9800  139.5257  164.6450 C.3     1  UNL1        0.0525
      8 C         142.5340  138.4908  165.6349 C.3     1  UNL1        0.0075
      9 C         142.7709  138.2373  163.9060 C.3     1  UNL1        0.0244
     10 C         143.0876  138.4758  162.4594 C.3     1  UNL1        0.0740
     11 N         143.4926  139.9117  162.3043 N.3     1  UNL1       -0.2567
     12 C         143.8936  140.5813  161.0233 C.3     1  UNL1        0.0909
     13 C         143.4261  140.5606  163.6551 C.3     1  UNL1        0.1380
     14 N         143.6353  141.8491  164.3940 N.pl3   1  UNL1       -0.2945
     15 C         144.0827  143.1481  163.7920 C.3     1  UNL1        0.1134
     16 O         142.1876  140.0170  169.8942 O.3     1  UNL1       -0.4103
     17 C         138.2292  140.0972  170.1670 C.3     1  UNL1        0.1140
     18 N         139.6082  139.8607  169.6261 N.am    1  UNL1       -0.2686
     19 C         140.8087  140.2535  170.4351 C.2     1  UNL1        0.4062
     20 O         140.6302  140.8828  171.7850 O.2     1  UNL1       -0.2260
     21 H         139.7253  139.4477  168.7401 H       1  UNL1        0.1528
@<TRIPOS>BOND
     1    17    18    1
     2    18    19   am
     3    19    20    2
     4    19    16    1
     5    16     1    1
     6     1     2   ar
     7     2     3   ar
     8     3     4   ar
     9     4     5   ar
    10     5     6   ar
    11     5     7    1
    12     7     8    1
    13     7     9    1
    14     9    10    1
    15    10    11    1
    16    11    12    1
    17    13    11    1
    18    13    14    1
    19    14    15    1
    20     6     1   ar
    21    13     7    1
    22    14     4    1
    23    18    21    1
@<TRIPOS>MOLECULE
*****
 21 23 0 0 0
SMALL
GASTEIGER

@<TRIPOS>ATOM
      1 C         141.6768  142.2748  167.6889 C.ar    1  UNL1        0.1498
      2 C         143.0689  142.0538  167.1759 C.ar    1  UNL1        0.0389
      3 C         143.4300  142.4736  165.7819 C.ar    1  UNL1        0.0174
      4 C         142.3990  143.1143  164.9008 C.ar    1  UNL1        0.0450
      5 C         141.0069  143.3353  165.4137 C.ar    1  UNL1       -0.0035
      6 C         140.6458  142.9155  166.8077 C.ar    1  UNL1        0.0347
      7 C         140.2088  143.9859  164.3228 C.3     1  UNL1        0.0525
      8 C         139.3099  143.8048  165.5099 C.3     1  UNL1        0.0075
      9 C         138.8553  144.5246  163.9657 C.3     1  UNL1        0.0244
     10 C         138.9176  145.0386  162.5579 C.3     1  UNL1        0.0740
     11 N         140.3097  144.8176  162.0450 N.3     1  UNL1       -0.2567
     12 C         140.8151  145.1831  160.6808 C.3     1  UNL1        0.0909
     13 C         141.1077  144.1670  163.1358 C.3     1  UNL1        0.1380
     14 N         142.4614  143.6284  163.4930 N.pl3   1  UNL1       -0.2945
     15 C         143.6659  143.6074  162.5993 C.3     1  UNL1        0.1134
     16 O         141.3157  141.8550  169.0829 O.3     1  UNL1       -0.4103
     17 C         142.8620  138.3435  170.0970 C.3     1  UNL1        0.1140
     18 N         142.7616  139.7861  169.6984 N.am    1  UNL1       -0.2686
     19 C         141.4160  140.4125  169.4815 C.2     1  UNL1        0.4062
     20 O         140.1707  139.5961  169.6633 O.2     1  UNL1       -0.2260
     21 H         143.5790  140.3219  169.5791 H       1  UNL1        0.1528
@<TRIPOS>BOND
     1    17    18    1
     2    18    19   am
     3    19    20    2
     4    19    16    1
     5    16     1    1
     6     1     2   ar
     7     2     3   ar
     8     3     4   ar
     9     4     5   ar
    10     5     6   ar
    11     5     7    1
    12     7     8    1
    13     7     9    1
    14     9    10    1
    15    10    11    1
    16    11    12    1
    17    13    11    1
    18    13    14    1
    19    14    15    1
    20     6     1   ar
    21    13     7    1
    22    14     4    1
    23    18    21    1
@<TRIPOS>MOLECULE
*****
 21 23 0 0 0
SMALL
GASTEIGER

@<TRIPOS>ATOM
      1 C         142.5920  139.2761  167.3738 C.ar    1  UNL1        0.1498
      2 C         143.4131  138.4567  166.4229 C.ar    1  UNL1        0.0389
      3 C         142.9408  138.2441  165.0152 C.ar    1  UNL1        0.0174
      4 C         141.6473  138.8508  164.5584 C.ar    1  UNL1        0.0450
      5 C         140.8262  139.6702  165.5093 C.ar    1  UNL1       -0.0035
      6 C         141.2985  139.8828  166.9170 C.ar    1  UNL1        0.0347
      7 C         139.6027  140.1398  164.7793 C.3     1  UNL1        0.0525
      8 C         139.5376  140.6690  166.1814 C.3     1  UNL1        0.0075
      9 C         138.3392  140.9364  164.9159 C.3     1  UNL1        0.0244
     10 C         137.6233  140.8996  163.5983 C.3     1  UNL1        0.0740
     11 N         138.4444  140.0802  162.6474 N.3     1  UNL1       -0.2567
     12 C         138.1023  139.7826  161.2175 C.3     1  UNL1        0.0909
     13 C         139.6678  139.6106  163.3773 C.3     1  UNL1        0.1380
     14 N         140.9314  138.8140  163.2408 N.pl3   1  UNL1       -0.2945
     15 C         141.3974  138.1050  162.0038 C.3     1  UNL1        0.1134
     16 O         143.0643  139.4888  168.7815 O.3     1  UNL1       -0.4103
     17 C         141.1063  141.9338  171.2184 C.3     1  UNL1        0.1140
     18 N         141.5036  140.6941  170.4732 N.am    1  UNL1       -0.2686
     19 C         142.6669  140.7284  169.5268 C.2     1  UNL1        0.4062
     20 O         143.4328  142.0024  169.3256 O.2     1  UNL1       -0.2260
     21 H         141.0010  139.8579  170.6052 H       1  UNL1        0.1528
@<TRIPOS>BOND
     1    17    18    1
     2    18    19   am
     3    19    20    2
     4    19    16    1
     5    16     1    1
     6     1     2   ar
     7     2     3   ar
     8     3     4   ar
     9     4     5   ar
    10     5     6   ar
    11     5     7    1
    12     7     8    1
    13     7     9    1
    14     9    10    1
    15    10    11    1
    16    11    12    1
    17    13    11    1
    18    13    14    1
    19    14    15    1
    20     6     1   ar
    21    13     7    1
    22    14     4    1
    23    18    21    1
