@<TRIPOS>MOLECULE
*****
 38 41 0 0 0
SMALL
GASTEIGER

@<TRIPOS>ATOM
      1 C         142.7097  141.1496  166.6415 C.3     1  UNL1        0.0401
      2 C         143.1844  142.5495  166.3869 C.3     1  UNL1        0.0765
      3 N         144.1145  142.5169  165.2105 N.3     1  UNL1       -0.2721
      4 C         144.2146  141.0968  164.7379 C.3     1  UNL1        0.0729
      5 C         143.3464  140.2518  165.6224 C.3     1  UNL1        0.0304
      6 C         139.8736  139.8682  169.8918 C.ar    1  UNL1        0.1387
      7 C         141.3538  139.7252  170.0886 C.ar    1  UNL1        0.0366
      8 C         142.2991  140.1524  169.0051 C.ar    1  UNL1       -0.0011
      9 C         141.7644  140.7224  167.7249 C.ar    1  UNL1       -0.0209
     10 C         140.2842  140.8654  167.5281 C.ar    1  UNL1       -0.0011
     11 C         139.3389  140.4382  168.6116 C.ar    1  UNL1        0.0366
     12 C         137.4527  139.3988  170.7094 C.3     1  UNL1        0.2525
     13 O         138.9283  139.4410  170.9752 O.3     1  UNL1       -0.4714
     14 C         144.8204  143.6972  164.6117 C.3     1  UNL1        0.0768
     15 C         144.0277  144.8494  164.0695 C.3     1  UNL1        0.0438
     16 C         142.7655  144.5952  163.2999 C.ar    1  UNL1       -0.0176
     17 C         142.8326  143.9984  161.9253 C.ar    1  UNL1       -0.0009
     18 C         141.5704  143.7442  161.1557 C.ar    1  UNL1        0.0397
     19 C         140.2412  144.0867  161.7606 C.ar    1  UNL1        0.1724
     20 C         140.1742  144.6834  163.1352 C.ar    1  UNL1        0.1721
     21 C         141.4364  144.9377  163.9048 C.ar    1  UNL1        0.0358
     22 O         138.9790  143.8324  160.9911 O.3     1  UNL1       -0.4684
     23 C         139.0180  143.0107  159.7368 C.3     1  UNL1        0.2526
     24 O         138.8450  145.0259  163.7401 O.3     1  UNL1       -0.4684
     25 C         138.6170  144.8301  165.2097 C.3     1  UNL1        0.2526
     26 C         143.1495  138.7692  165.5077 C.3     1  UNL1        0.0868
     27 C         141.9819  138.2248  164.7396 C.2     1  UNL1        0.2228
     28 O         142.1686  137.7463  163.3302 O.2     1  UNL1       -0.2751
     29 N         140.6273  138.1588  165.3807 N.am    1  UNL1       -0.3004
     30 H         140.5047  138.4728  166.3056 H       1  UNL1        0.1497
     31 C         139.4597  137.6144  164.6124 C.3     1  UNL1        0.1164
     32 C         138.7782  138.4645  163.5814 C.ar    1  UNL1       -0.0017
     33 C         138.5361  137.9229  162.2037 C.ar    1  UNL1       -0.0026
     34 C         137.8546  138.7729  161.1726 C.ar    1  UNL1        0.0006
     35 C         137.4152  140.1645  161.5193 C.ar    1  UNL1        0.0114
     36 C         137.6573  140.7062  162.8971 C.ar    1  UNL1        0.0574
     37 CL        137.2179  142.0978  163.2438 Cl      1  UNL1       -0.0823
     38 C         138.3388  139.8561  163.9281 C.ar    1  UNL1        0.0088
@<TRIPOS>BOND
     1    12    13    1
     2    13     6    1
     3     6     7   ar
     4     7     8   ar
     5     8     9   ar
     6     1     9    1
     7     1     2    1
     8     2     3    1
     9     3    14    1
    10    14    15    1
    11    15    16    1
    12    16    17   ar
    13    17    18   ar
    14    18    19   ar
    15    19    22    1
    16    22    23    1
    17    19    20   ar
    18    20    24    1
    19    24    25    1
    20    20    21   ar
    21     3     4    1
    22     4     5    1
    23     5    26    1
    24    26    27    1
    25    27    28    2
    26    27    29   am
    27    29    31    1
    28    31    32    1
    29    32    33   ar
    30    33    34   ar
    31    34    35   ar
    32    35    36   ar
    33    36    37    1
    34    36    38   ar
    35     9    10   ar
    36    10    11   ar
    37    11     6   ar
    38     5     1    1
    39    38    32   ar
    40    21    16   ar
    41    29    30    1
@<TRIPOS>MOLECULE
*****
 38 41 0 0 0
SMALL
GASTEIGER

@<TRIPOS>ATOM
      1 C         138.9652  139.3676  163.0260 C.3     1  UNL1        0.0401
      2 C         138.1570  140.2100  162.0840 C.3     1  UNL1        0.0765
      3 N         138.5050  139.8028  160.6829 N.3     1  UNL1       -0.2721
      4 C         139.5283  138.7086  160.7589 C.3     1  UNL1        0.0729
      5 C         139.8127  138.4397  162.2070 C.3     1  UNL1        0.0304
      6 C         138.8648  139.5858  167.5195 C.ar    1  UNL1        0.1387
      7 C         139.5332  140.6724  166.7306 C.ar    1  UNL1        0.0366
      8 C         139.5667  140.5997  165.2328 C.ar    1  UNL1       -0.0011
      9 C         138.9317  139.4404  164.5238 C.ar    1  UNL1       -0.0209
     10 C         138.2632  138.3538  165.3127 C.ar    1  UNL1       -0.0011
     11 C         138.2298  138.4265  166.8106 C.ar    1  UNL1        0.0366
     12 C         139.3608  140.8727  169.7213 C.3     1  UNL1        0.2525
     13 O         138.8313  139.6586  169.0174 O.3     1  UNL1       -0.4714
     14 C         137.9306  140.3870  159.4265 C.3     1  UNL1        0.0768
     15 C         138.5551  141.6044  158.8117 C.3     1  UNL1        0.0438
     16 C         139.7341  142.2566  159.4711 C.ar    1  UNL1       -0.0176
     17 C         141.1238  141.7879  159.1559 C.ar    1  UNL1       -0.0009
     18 C         142.3028  142.4401  159.8152 C.ar    1  UNL1        0.0397
     19 C         142.0920  143.5609  160.7897 C.ar    1  UNL1        0.1724
     20 C         140.7024  144.0295  161.1047 C.ar    1  UNL1        0.1721
     21 C         139.5234  143.3773  160.4454 C.ar    1  UNL1        0.0358
     22 O         143.2710  144.2131  161.4490 O.3     1  UNL1       -0.4684
     23 C         144.4261  143.3779  161.9159 C.3     1  UNL1        0.2526
     24 O         140.4917  145.1503  162.0791 O.3     1  UNL1       -0.4684
     25 C         140.4767  144.8702  163.5527 C.3     1  UNL1        0.2526
     26 C         140.7755  137.4216  162.7421 C.3     1  UNL1        0.0868
     27 C         141.9310  137.8569  163.5936 C.2     1  UNL1        0.2228
     28 O         143.1631  138.4241  162.9530 O.2     1  UNL1       -0.2751
     29 N         141.8546  137.7251  165.0859 N.am    1  UNL1       -0.3004
     30 H         141.0460  137.3529  165.5064 H       1  UNL1        0.1497
     31 C         143.0102  138.1605  165.9374 C.3     1  UNL1        0.1164
     32 C         143.0175  139.5305  166.5482 C.ar    1  UNL1       -0.0017
     33 C         142.7716  139.6975  168.0185 C.ar    1  UNL1       -0.0026
     34 C         142.7789  141.0675  168.6293 C.ar    1  UNL1        0.0006
     35 C         143.0321  142.2705  167.7699 C.ar    1  UNL1        0.0114
     36 C         143.2781  142.1035  166.2996 C.ar    1  UNL1        0.0574
     37 CL        143.5313  143.3065  165.4401 Cl      1  UNL1       -0.0823
     38 C         143.2708  140.7335  165.6888 C.ar    1  UNL1        0.0088
@<TRIPOS>BOND
     1    12    13    1
     2    13     6    1
     3     6     7   ar
     4     7     8   ar
     5     8     9   ar
     6     1     9    1
     7     1     2    1
     8     2     3    1
     9     3    14    1
    10    14    15    1
    11    15    16    1
    12    16    17   ar
    13    17    18   ar
    14    18    19   ar
    15    19    22    1
    16    22    23    1
    17    19    20   ar
    18    20    24    1
    19    24    25    1
    20    20    21   ar
    21     3     4    1
    22     4     5    1
    23     5    26    1
    24    26    27    1
    25    27    28    2
    26    27    29   am
    27    29    31    1
    28    31    32    1
    29    32    33   ar
    30    33    34   ar
    31    34    35   ar
    32    35    36   ar
    33    36    37    1
    34    36    38   ar
    35     9    10   ar
    36    10    11   ar
    37    11     6   ar
    38     5     1    1
    39    38    32   ar
    40    21    16   ar
    41    29    30    1
@<TRIPOS>MOLECULE
*****
 38 41 0 0 0
SMALL
GASTEIGER

@<TRIPOS>ATOM
      1 C         138.8336  139.1459  163.6180 C.3     1  UNL1        0.0401
      2 C         137.9415  139.8811  162.6622 C.3     1  UNL1        0.0765
      3 N         138.1983  139.3470  161.2842 N.3     1  UNL1       -0.2721
      4 C         139.2491  138.2817  161.3884 C.3     1  UNL1        0.0729
      5 C         139.6418  138.1574  162.8307 C.3     1  UNL1        0.0304
      6 C         139.0479  139.7921  168.0662 C.ar    1  UNL1        0.1387
      7 C         140.0029  140.5076  167.1575 C.ar    1  UNL1        0.0366
      8 C         139.9315  140.2922  165.6748 C.ar    1  UNL1       -0.0011
      9 C         138.9050  139.3613  165.1008 C.ar    1  UNL1       -0.0209
     10 C         137.9500  138.6457  166.0095 C.ar    1  UNL1       -0.0011
     11 C         138.0214  138.8611  167.4922 C.ar    1  UNL1        0.0366
     12 C         140.4524  140.0869  170.2319 C.3     1  UNL1        0.2525
     13 O         139.1193  140.0075  169.5490 O.3     1  UNL1       -0.4714
     14 C         137.5228  139.7989  160.0235 C.3     1  UNL1        0.0768
     15 C         138.2724  140.6358  159.0296 C.3     1  UNL1        0.0438
     16 C         139.2931  141.6278  159.5028 C.ar    1  UNL1       -0.0176
     17 C         140.7541  141.3559  159.2988 C.ar    1  UNL1       -0.0009
     18 C         141.7748  142.3479  159.7720 C.ar    1  UNL1        0.0397
     19 C         141.3346  143.6119  160.4492 C.ar    1  UNL1        0.1724
     20 C         139.8736  143.8838  160.6531 C.ar    1  UNL1        0.1721
     21 C         138.8528  142.8917  160.1799 C.ar    1  UNL1        0.0358
     22 O         142.3553  144.6040  160.9224 O.3     1  UNL1       -0.4684
     23 C         142.6936  144.6942  162.3809 C.3     1  UNL1        0.2526
     24 O         139.4334  145.1478  161.3303 O.3     1  UNL1       -0.4684
     25 C         138.9358  145.1068  162.7447 C.3     1  UNL1        0.2526
     26 C         140.6633  137.2108  163.3879 C.3     1  UNL1        0.0868
     27 C         141.9772  137.7342  163.8874 C.2     1  UNL1        0.2228
     28 O         142.3160  137.6415  165.3458 O.2     1  UNL1       -0.2751
     29 N         142.9525  138.3502  162.9287 N.am    1  UNL1       -0.3004
     30 H         142.7302  138.4111  161.9715 H       1  UNL1        0.1497
     31 C         144.2665  138.8736  163.4282 C.3     1  UNL1        0.1164
     32 C         144.3638  140.2738  163.9574 C.ar    1  UNL1       -0.0017
     33 C         145.2512  141.2730  163.2762 C.ar    1  UNL1       -0.0026
     34 C         145.3485  142.6733  163.8053 C.ar    1  UNL1        0.0006
     35 C         144.5585  143.0742  165.0157 C.ar    1  UNL1        0.0114
     36 C         143.6710  142.0749  165.6969 C.ar    1  UNL1        0.0574
     37 CL        142.8809  142.4759  166.9073 Cl      1  UNL1       -0.0823
     38 C         143.5737  140.6747  165.1678 C.ar    1  UNL1        0.0088
@<TRIPOS>BOND
     1    12    13    1
     2    13     6    1
     3     6     7   ar
     4     7     8   ar
     5     8     9   ar
     6     1     9    1
     7     1     2    1
     8     2     3    1
     9     3    14    1
    10    14    15    1
    11    15    16    1
    12    16    17   ar
    13    17    18   ar
    14    18    19   ar
    15    19    22    1
    16    22    23    1
    17    19    20   ar
    18    20    24    1
    19    24    25    1
    20    20    21   ar
    21     3     4    1
    22     4     5    1
    23     5    26    1
    24    26    27    1
    25    27    28    2
    26    27    29   am
    27    29    31    1
    28    31    32    1
    29    32    33   ar
    30    33    34   ar
    31    34    35   ar
    32    35    36   ar
    33    36    37    1
    34    36    38   ar
    35     9    10   ar
    36    10    11   ar
    37    11     6   ar
    38     5     1    1
    39    38    32   ar
    40    21    16   ar
    41    29    30    1
@<TRIPOS>MOLECULE
*****
 38 41 0 0 0
SMALL
GASTEIGER

@<TRIPOS>ATOM
      1 C         141.1038  138.5566  161.5271 C.3     1  UNL1        0.0401
      2 C         140.5807  138.4831  160.1232 C.3     1  UNL1        0.0765
      3 N         141.7500  138.2994  159.2018 N.3     1  UNL1       -0.2721
      4 C         142.9958  138.2594  160.0363 C.3     1  UNL1        0.0729
      5 C         142.5964  138.4184  161.4734 C.3     1  UNL1        0.0304
      6 C         138.6297  139.0970  165.2469 C.ar    1  UNL1        0.1387
      7 C         139.1131  137.7309  164.8596 C.ar    1  UNL1        0.0366
      8 C         139.9378  137.5508  163.6197 C.ar    1  UNL1       -0.0011
      9 C         140.2791  138.7367  162.7671 C.ar    1  UNL1       -0.0209
     10 C         139.7957  140.1028  163.1544 C.ar    1  UNL1       -0.0011
     11 C         138.9710  140.2829  164.3943 C.ar    1  UNL1        0.0366
     12 C         137.3072  138.0776  167.2373 C.3     1  UNL1        0.2525
     13 O         137.8050  139.2771  166.4868 O.3     1  UNL1       -0.4714
     14 C         141.6848  138.1772  157.7082 C.3     1  UNL1        0.0768
     15 C         142.7532  137.4266  156.9699 C.3     1  UNL1        0.0438
     16 C         142.5325  135.9943  156.5829 C.ar    1  UNL1       -0.0176
     17 C         141.5115  135.6480  155.5399 C.ar    1  UNL1       -0.0009
     18 C         141.2907  134.2157  155.1529 C.ar    1  UNL1        0.0397
     19 C         142.0909  133.1297  155.8089 C.ar    1  UNL1        0.1724
     20 C         143.1118  133.4760  156.8519 C.ar    1  UNL1        0.1721
     21 C         143.3326  134.9084  157.2389 C.ar    1  UNL1        0.0358
     22 O         141.8702  131.6974  155.4220 O.3     1  UNL1       -0.4684
     23 C         140.6127  131.2987  154.7081 C.3     1  UNL1        0.2526
     24 O         143.9120  132.3900  157.5079 O.3     1  UNL1       -0.4684
     25 C         145.1243  131.8330  156.8221 C.3     1  UNL1        0.2526
     26 C         143.5265  138.4360  162.6501 C.3     1  UNL1        0.0868
     27 C         143.9582  139.7433  163.2454 C.2     1  UNL1        0.2228
     28 O         144.9603  140.5992  162.5290 O.2     1  UNL1       -0.2751
     29 N         143.3878  140.1949  164.5572 N.am    1  UNL1       -0.3004
     30 H         142.7301  139.6332  165.0275 H       1  UNL1        0.1497
     31 C         143.8196  141.5022  165.1525 C.3     1  UNL1        0.1164
     32 C         143.1827  142.7811  164.6956 C.ar    1  UNL1       -0.0017
     33 C         144.0190  143.8477  164.0530 C.ar    1  UNL1       -0.0026
     34 C         143.3822  145.1267  163.5960 C.ar    1  UNL1        0.0006
     35 C         141.9090  145.3390  163.7817 C.ar    1  UNL1        0.0114
     36 C         141.0726  144.2724  164.4243 C.ar    1  UNL1        0.0574
     37 CL        139.5993  144.4847  164.6100 Cl      1  UNL1       -0.0823
     38 C         141.7095  142.9935  164.8812 C.ar    1  UNL1        0.0088
@<TRIPOS>BOND
     1    12    13    1
     2    13     6    1
     3     6     7   ar
     4     7     8   ar
     5     8     9   ar
     6     1     9    1
     7     1     2    1
     8     2     3    1
     9     3    14    1
    10    14    15    1
    11    15    16    1
    12    16    17   ar
    13    17    18   ar
    14    18    19   ar
    15    19    22    1
    16    22    23    1
    17    19    20   ar
    18    20    24    1
    19    24    25    1
    20    20    21   ar
    21     3     4    1
    22     4     5    1
    23     5    26    1
    24    26    27    1
    25    27    28    2
    26    27    29   am
    27    29    31    1
    28    31    32    1
    29    32    33   ar
    30    33    34   ar
    31    34    35   ar
    32    35    36   ar
    33    36    37    1
    34    36    38   ar
    35     9    10   ar
    36    10    11   ar
    37    11     6   ar
    38     5     1    1
    39    38    32   ar
    40    21    16   ar
    41    29    30    1
@<TRIPOS>MOLECULE
*****
 38 41 0 0 0
SMALL
GASTEIGER

@<TRIPOS>ATOM
      1 C         139.2855  140.7622  163.8257 C.3     1  UNL1        0.0401
      2 C         140.0813  139.8261  164.6862 C.3     1  UNL1        0.0765
      3 N         140.1033  140.3825  166.0791 N.3     1  UNL1       -0.2721
      4 C         139.3211  141.6624  166.0794 C.3     1  UNL1        0.0729
      5 C         138.8157  141.8970  164.6868 C.3     1  UNL1        0.0304
      6 C         138.4536  140.2549  159.4325 C.ar    1  UNL1        0.1387
      7 C         139.7470  140.8647  159.8854 C.ar    1  UNL1        0.0366
      8 C         140.0243  141.0338  161.3498 C.ar    1  UNL1       -0.0011
      9 C         139.0082  140.5931  162.3613 C.ar    1  UNL1       -0.0209
     10 C         137.7148  139.9833  161.9084 C.ar    1  UNL1       -0.0011
     11 C         137.4375  139.8142  160.4440 C.ar    1  UNL1        0.0366
     12 C         137.2342  141.0214  157.2702 C.3     1  UNL1        0.2525
     13 O         138.1763  140.0858  157.9680 O.3     1  UNL1       -0.4714
     14 C         140.7874  139.7669  167.2636 C.3     1  UNL1        0.0768
     15 C         142.2663  139.9371  167.4476 C.3     1  UNL1        0.0438
     16 C         143.1020  140.4912  166.3321 C.ar    1  UNL1       -0.0176
     17 C         143.6852  139.5691  165.3025 C.ar    1  UNL1       -0.0009
     18 C         144.5209  140.1233  164.1869 C.ar    1  UNL1        0.0397
     19 C         144.7734  141.5994  164.1008 C.ar    1  UNL1        0.1724
     20 C         144.1902  142.5213  165.1303 C.ar    1  UNL1        0.1721
     21 C         143.3544  141.9672  166.2460 C.ar    1  UNL1        0.0358
     22 O         145.6091  142.1535  162.9853 O.3     1  UNL1       -0.4684
     23 C         145.0764  142.1642  161.5831 C.3     1  UNL1        0.2526
     24 O         144.4427  143.9974  165.0442 O.3     1  UNL1       -0.4684
     25 C         143.7102  144.8258  164.0307 C.3     1  UNL1        0.2526
     26 C         137.9861  143.0621  164.2345 C.3     1  UNL1        0.0868
     27 C         138.5797  144.0982  163.3269 C.2     1  UNL1        0.2228
     28 O         137.6915  144.9015  162.4235 O.2     1  UNL1       -0.2751
     29 N         140.0615  144.3311  163.3224 N.am    1  UNL1       -0.3004
     30 H         140.6445  143.8039  163.9152 H       1  UNL1        0.1497
     31 C         140.6551  145.3673  162.4147 C.3     1  UNL1        0.1164
     32 C         141.0246  145.0074  161.0061 C.ar    1  UNL1       -0.0017
     33 C         142.0652  143.9582  160.7484 C.ar    1  UNL1       -0.0026
     34 C         142.4347  143.5983  159.3399 C.ar    1  UNL1        0.0006
     35 C         141.7636  144.2876  158.1890 C.ar    1  UNL1        0.0114
     36 C         140.7229  145.3368  158.4467 C.ar    1  UNL1        0.0574
     37 CL        140.0518  146.0261  157.2959 Cl      1  UNL1       -0.0823
     38 C         140.3534  145.6967  159.8553 C.ar    1  UNL1        0.0088
@<TRIPOS>BOND
     1    12    13    1
     2    13     6    1
     3     6     7   ar
     4     7     8   ar
     5     8     9   ar
     6     1     9    1
     7     1     2    1
     8     2     3    1
     9     3    14    1
    10    14    15    1
    11    15    16    1
    12    16    17   ar
    13    17    18   ar
    14    18    19   ar
    15    19    22    1
    16    22    23    1
    17    19    20   ar
    18    20    24    1
    19    24    25    1
    20    20    21   ar
    21     3     4    1
    22     4     5    1
    23     5    26    1
    24    26    27    1
    25    27    28    2
    26    27    29   am
    27    29    31    1
    28    31    32    1
    29    32    33   ar
    30    33    34   ar
    31    34    35   ar
    32    35    36   ar
    33    36    37    1
    34    36    38   ar
    35     9    10   ar
    36    10    11   ar
    37    11     6   ar
    38     5     1    1
    39    38    32   ar
    40    21    16   ar
    41    29    30    1
@<TRIPOS>MOLECULE
*****
 38 41 0 0 0
SMALL
GASTEIGER

@<TRIPOS>ATOM
      1 C         141.5254  144.5064  161.6670 C.3     1  UNL1        0.0401
      2 C         142.9381  144.5549  162.1690 C.3     1  UNL1        0.0765
      3 N         142.8995  144.8907  163.6304 N.3     1  UNL1       -0.2721
      4 C         141.4630  145.0497  164.0317 C.3     1  UNL1        0.0729
      5 C         140.6137  144.8122  162.8182 C.3     1  UNL1        0.0304
      6 C         140.2469  143.6022  157.4483 C.ar    1  UNL1        0.1387
      7 C         140.5086  142.4807  158.4093 C.ar    1  UNL1        0.0366
      8 C         140.9348  142.7821  159.8156 C.ar    1  UNL1       -0.0011
      9 C         141.0993  144.2050  160.2608 C.ar    1  UNL1       -0.0209
     10 C         140.8375  145.3265  159.2997 C.ar    1  UNL1       -0.0011
     11 C         140.4114  145.0251  157.8935 C.ar    1  UNL1        0.0366
     12 C         140.5902  143.8697  154.8869 C.3     1  UNL1        0.2525
     13 O         139.8208  143.3008  156.0420 O.3     1  UNL1       -0.4714
     14 C         144.0887  145.0410  164.5322 C.3     1  UNL1        0.0768
     15 C         144.6506  143.8429  165.2385 C.3     1  UNL1        0.0438
     16 C         144.3797  142.4654  164.7100 C.ar    1  UNL1       -0.0176
     17 C         145.0723  141.9892  163.4675 C.ar    1  UNL1       -0.0009
     18 C         144.8014  140.6118  162.9390 C.ar    1  UNL1        0.0397
     19 C         143.8381  139.7106  163.6530 C.ar    1  UNL1        0.1724
     20 C         143.1456  140.1868  164.8954 C.ar    1  UNL1        0.1721
     21 C         143.4164  141.5643  165.4239 C.ar    1  UNL1        0.0358
     22 O         143.5672  138.3331  163.1246 O.3     1  UNL1       -0.4684
     23 C         143.8683  138.0069  161.6918 C.3     1  UNL1        0.2526
     24 O         142.1822  139.2855  165.6094 O.3     1  UNL1       -0.4684
     25 C         141.6350  139.6828  166.9483 C.3     1  UNL1        0.2526
     26 C         139.1158  144.8703  162.7653 C.3     1  UNL1        0.0868
     27 C         138.3140  143.6034  162.8087 C.2     1  UNL1        0.2228
     28 O         137.6371  143.1013  161.5678 O.2     1  UNL1       -0.2751
     29 N         138.1890  142.8385  164.0929 N.am    1  UNL1       -0.3004
     30 H         138.6333  143.1680  164.9074 H       1  UNL1        0.1497
     31 C         137.3872  141.5715  164.1362 C.3     1  UNL1        0.1164
     32 C         138.0841  140.2446  164.1966 C.ar    1  UNL1       -0.0017
     33 C         138.0678  139.4459  165.4662 C.ar    1  UNL1       -0.0026
     34 C         138.7646  138.1190  165.5267 C.ar    1  UNL1        0.0006
     35 C         139.4778  137.5907  164.3174 C.ar    1  UNL1        0.0114
     36 C         139.4941  138.3893  163.0477 C.ar    1  UNL1        0.0574
     37 CL        140.2073  137.8610  161.8385 Cl      1  UNL1       -0.0823
     38 C         138.7973  139.7163  162.9874 C.ar    1  UNL1        0.0088
@<TRIPOS>BOND
     1    12    13    1
     2    13     6    1
     3     6     7   ar
     4     7     8   ar
     5     8     9   ar
     6     1     9    1
     7     1     2    1
     8     2     3    1
     9     3    14    1
    10    14    15    1
    11    15    16    1
    12    16    17   ar
    13    17    18   ar
    14    18    19   ar
    15    19    22    1
    16    22    23    1
    17    19    20   ar
    18    20    24    1
    19    24    25    1
    20    20    21   ar
    21     3     4    1
    22     4     5    1
    23     5    26    1
    24    26    27    1
    25    27    28    2
    26    27    29   am
    27    29    31    1
    28    31    32    1
    29    32    33   ar
    30    33    34   ar
    31    34    35   ar
    32    35    36   ar
    33    36    37    1
    34    36    38   ar
    35     9    10   ar
    36    10    11   ar
    37    11     6   ar
    38     5     1    1
    39    38    32   ar
    40    21    16   ar
    41    29    30    1
@<TRIPOS>MOLECULE
*****
 38 41 0 0 0
SMALL
GASTEIGER

@<TRIPOS>ATOM
      1 C         141.1194  138.4146  160.8877 C.3     1  UNL1        0.0401
      2 C         140.4914  138.4545  159.5261 C.3     1  UNL1        0.0765
      3 N         141.5534  138.1347  158.5162 N.3     1  UNL1       -0.2721
      4 C         142.8378  137.8971  159.2537 C.3     1  UNL1        0.0729
      5 C         142.5696  138.0702  160.7193 C.3     1  UNL1        0.0304
      6 C         139.0215  139.1919  164.7921 C.ar    1  UNL1        0.1387
      7 C         139.4647  137.8022  164.4425 C.ar    1  UNL1        0.0366
      8 C         140.1640  137.5431  163.1411 C.ar    1  UNL1       -0.0011
      9 C         140.4201  138.6737  162.1892 C.ar    1  UNL1       -0.0209
     10 C         139.9769  140.0634  162.5388 C.ar    1  UNL1       -0.0011
     11 C         139.2776  140.3225  163.8403 C.ar    1  UNL1        0.0366
     12 C         137.6716  138.3200  166.8336 C.3     1  UNL1        0.2525
     13 O         138.3222  139.4510  166.0936 O.3     1  UNL1       -0.4714
     14 C         141.3642  138.0648  157.0298 C.3     1  UNL1        0.0768
     15 C         142.3430  137.3054  156.1841 C.3     1  UNL1        0.0438
     16 C         142.2818  135.8077  156.1279 C.ar    1  UNL1       -0.0176
     17 C         141.3176  135.1309  155.1992 C.ar    1  UNL1       -0.0009
     18 C         141.2565  133.6332  155.1429 C.ar    1  UNL1        0.0397
     19 C         142.1594  132.8123  156.0153 C.ar    1  UNL1        0.1724
     20 C         143.1234  133.4892  156.9439 C.ar    1  UNL1        0.1721
     21 C         143.1847  134.9870  157.0002 C.ar    1  UNL1        0.0358
     22 O         142.0982  131.3147  155.9591 O.3     1  UNL1       -0.4684
     23 C         142.8977  130.5695  154.9318 C.3     1  UNL1        0.2526
     24 O         144.0264  132.6684  157.8163 O.3     1  UNL1       -0.4684
     25 C         145.3191  132.1390  157.2699 C.3     1  UNL1        0.2526
     26 C         143.5751  137.9243  161.8228 C.3     1  UNL1        0.0868
     27 C         143.8488  139.0750  162.7451 C.2     1  UNL1        0.2228
     28 O         144.5285  140.3073  162.2256 O.2     1  UNL1       -0.2751
     29 N         143.4429  138.9938  164.1868 N.am    1  UNL1       -0.3004
     30 H         142.9968  138.1851  164.5278 H       1  UNL1        0.1497
     31 C         143.7167  140.1447  165.1091 C.3     1  UNL1        0.1164
     32 C         142.5904  140.7830  165.8667 C.ar    1  UNL1       -0.0017
     33 C         142.0759  142.1297  165.4521 C.ar    1  UNL1       -0.0026
     34 C         140.9496  142.7681  166.2097 C.ar    1  UNL1        0.0006
     35 C         140.3378  142.0598  167.3819 C.ar    1  UNL1        0.0114
     36 C         140.8523  140.7131  167.7965 C.ar    1  UNL1        0.0574
     37 CL        140.2405  140.0048  168.9687 Cl      1  UNL1       -0.0823
     38 C         141.9786  140.0748  167.0389 C.ar    1  UNL1        0.0088
@<TRIPOS>BOND
     1    12    13    1
     2    13     6    1
     3     6     7   ar
     4     7     8   ar
     5     8     9   ar
     6     1     9    1
     7     1     2    1
     8     2     3    1
     9     3    14    1
    10    14    15    1
    11    15    16    1
    12    16    17   ar
    13    17    18   ar
    14    18    19   ar
    15    19    22    1
    16    22    23    1
    17    19    20   ar
    18    20    24    1
    19    24    25    1
    20    20    21   ar
    21     3     4    1
    22     4     5    1
    23     5    26    1
    24    26    27    1
    25    27    28    2
    26    27    29   am
    27    29    31    1
    28    31    32    1
    29    32    33   ar
    30    33    34   ar
    31    34    35   ar
    32    35    36   ar
    33    36    37    1
    34    36    38   ar
    35     9    10   ar
    36    10    11   ar
    37    11     6   ar
    38     5     1    1
    39    38    32   ar
    40    21    16   ar
    41    29    30    1
@<TRIPOS>MOLECULE
*****
 38 41 0 0 0
SMALL
GASTEIGER

@<TRIPOS>ATOM
      1 C         142.0499  143.3183  160.9732 C.3     1  UNL1        0.0401
      2 C         140.6327  143.7979  160.8653 C.3     1  UNL1        0.0765
      3 N         140.3019  144.5523  162.1189 N.3     1  UNL1       -0.2721
      4 C         141.5146  144.5390  163.0015 C.3     1  UNL1        0.0729
      5 C         142.5949  143.7763  162.2935 C.3     1  UNL1        0.0304
      6 C         144.2755  140.9257  157.8793 C.ar    1  UNL1        0.1387
      7 C         143.7345  140.2494  159.1040 C.ar    1  UNL1        0.0366
      8 C         142.9926  141.0469  160.1353 C.ar    1  UNL1       -0.0011
      9 C         142.7917  142.5208  159.9419 C.ar    1  UNL1       -0.0209
     10 C         143.3327  143.1970  158.7172 C.ar    1  UNL1       -0.0011
     11 C         144.0746  142.3995  157.6859 C.ar    1  UNL1        0.0366
     12 C         145.8221  140.8290  155.7940 C.3     1  UNL1        0.2525
     13 O         145.0174  140.1281  156.8480 O.3     1  UNL1       -0.4714
     14 C         138.9889  145.2053  162.4343 C.3     1  UNL1        0.0768
     15 C         137.8480  144.3824  162.9551 C.3     1  UNL1        0.0438
     16 C         138.0966  142.9946  163.4670 C.ar    1  UNL1       -0.0176
     17 C         138.6752  142.7926  164.8362 C.ar    1  UNL1       -0.0009
     18 C         138.9238  141.4048  165.3480 C.ar    1  UNL1        0.0397
     19 C         138.5939  140.2189  164.4908 C.ar    1  UNL1        0.1724
     20 C         138.0153  140.4208  163.1217 C.ar    1  UNL1        0.1721
     21 C         137.7667  141.8088  162.6098 C.ar    1  UNL1        0.0358
     22 O         138.8425  138.8310  165.0027 O.3     1  UNL1       -0.4684
     23 C         138.1463  138.3529  166.2423 C.3     1  UNL1        0.2526
     24 O         137.6854  139.2350  162.2645 O.3     1  UNL1       -0.4684
     25 C         138.7650  138.5579  161.4732 C.3     1  UNL1        0.2526
     26 C         143.9775  143.5172  162.8143 C.3     1  UNL1        0.0868
     27 C         144.1953  142.4901  163.8854 C.2     1  UNL1        0.2228
     28 O         145.5891  142.0826  164.2616 O.2     1  UNL1       -0.2751
     29 N         143.0194  141.8703  164.5804 N.am    1  UNL1       -0.3004
     30 H         142.1046  142.1376  164.3336 H       1  UNL1        0.1497
     31 C         143.2372  140.8431  165.6516 C.3     1  UNL1        0.1164
     32 C         142.4939  140.9447  166.9505 C.ar    1  UNL1       -0.0017
     33 C         141.4596  139.9179  167.3051 C.ar    1  UNL1       -0.0026
     34 C         140.7162  140.0195  168.6040 C.ar    1  UNL1        0.0006
     35 C         141.0073  141.1480  169.5484 C.ar    1  UNL1        0.0114
     36 C         142.0417  142.1748  169.1938 C.ar    1  UNL1        0.0574
     37 CL        142.3328  143.3033  170.1382 Cl      1  UNL1       -0.0823
     38 C         142.7850  142.0732  167.8949 C.ar    1  UNL1        0.0088
@<TRIPOS>BOND
     1    12    13    1
     2    13     6    1
     3     6     7   ar
     4     7     8   ar
     5     8     9   ar
     6     1     9    1
     7     1     2    1
     8     2     3    1
     9     3    14    1
    10    14    15    1
    11    15    16    1
    12    16    17   ar
    13    17    18   ar
    14    18    19   ar
    15    19    22    1
    16    22    23    1
    17    19    20   ar
    18    20    24    1
    19    24    25    1
    20    20    21   ar
    21     3     4    1
    22     4     5    1
    23     5    26    1
    24    26    27    1
    25    27    28    2
    26    27    29   am
    27    29    31    1
    28    31    32    1
    29    32    33   ar
    30    33    34   ar
    31    34    35   ar
    32    35    36   ar
    33    36    37    1
    34    36    38   ar
    35     9    10   ar
    36    10    11   ar
    37    11     6   ar
    38     5     1    1
    39    38    32   ar
    40    21    16   ar
    41    29    30    1
@<TRIPOS>MOLECULE
*****
 38 41 0 0 0
SMALL
GASTEIGER

@<TRIPOS>ATOM
      1 C         142.3982  143.6295  160.7102 C.3     1  UNL1        0.0401
      2 C         141.0424  144.2608  160.5956 C.3     1  UNL1        0.0765
      3 N         140.8296  145.1247  161.8032 N.3     1  UNL1       -0.2721
      4 C         142.0540  145.0274  162.6642 C.3     1  UNL1        0.0729
      5 C         143.0235  144.1034  161.9887 C.3     1  UNL1        0.0304
      6 C         144.2627  140.8095  157.7402 C.ar    1  UNL1        0.1387
      7 C         144.3342  142.2907  157.5149 C.ar    1  UNL1        0.0366
      8 C         143.7127  143.2307  158.5049 C.ar    1  UNL1       -0.0011
      9 C         143.0197  142.6895  159.7202 C.ar    1  UNL1       -0.0209
     10 C         142.9483  141.2083  159.9454 C.ar    1  UNL1       -0.0011
     11 C         143.5697  140.2683  158.9554 C.ar    1  UNL1        0.0366
     12 C         144.0132  139.0579  155.8376 C.3     1  UNL1        0.2525
     13 O         144.8842  139.8695  156.7501 O.3     1  UNL1       -0.4714
     14 C         139.6071  145.9424  162.0980 C.3     1  UNL1        0.0768
     15 C         138.2930  145.2635  162.3473 C.3     1  UNL1        0.0438
     16 C         138.2621  143.8664  162.8924 C.ar    1  UNL1       -0.0176
     17 C         138.5723  143.6187  164.3390 C.ar    1  UNL1       -0.0009
     18 C         138.5414  142.2216  164.8841 C.ar    1  UNL1        0.0397
     19 C         138.2004  141.0722  163.9826 C.ar    1  UNL1        0.1724
     20 C         137.8903  141.3199  162.5361 C.ar    1  UNL1        0.1721
     21 C         137.9211  142.7170  161.9909 C.ar    1  UNL1        0.0358
     22 O         138.1695  139.6750  164.5277 O.3     1  UNL1       -0.4684
     23 C         138.5467  139.4190  165.9567 C.3     1  UNL1        0.2526
     24 O         137.5493  140.1705  161.6346 O.3     1  UNL1       -0.4684
     25 C         138.4787  139.7897  160.5206 C.3     1  UNL1        0.2526
     26 C         144.3800  143.7204  162.5016 C.3     1  UNL1        0.0868
     27 C         144.5343  142.5249  163.3942 C.2     1  UNL1        0.2228
     28 O         144.1615  142.6183  164.8442 O.2     1  UNL1       -0.2751
     29 N         145.0615  141.2358  162.8370 N.am    1  UNL1       -0.3004
     30 H         145.3061  141.1744  161.8854 H       1  UNL1        0.1497
     31 C         145.2158  140.0403  163.7297 C.3     1  UNL1        0.1164
     32 C         144.0158  139.2185  164.0967 C.ar    1  UNL1       -0.0017
     33 C         143.7798  138.8330  165.5270 C.ar    1  UNL1       -0.0026
     34 C         142.5799  138.0111  165.8942 C.ar    1  UNL1        0.0006
     35 C         141.6159  137.5748  164.8310 C.ar    1  UNL1        0.0114
     36 C         141.8519  137.9604  163.4006 C.ar    1  UNL1        0.0574
     37 CL        140.8879  137.5241  162.3374 Cl      1  UNL1       -0.0823
     38 C         143.0518  138.7822  163.0336 C.ar    1  UNL1        0.0088
@<TRIPOS>BOND
     1    12    13    1
     2    13     6    1
     3     6     7   ar
     4     7     8   ar
     5     8     9   ar
     6     1     9    1
     7     1     2    1
     8     2     3    1
     9     3    14    1
    10    14    15    1
    11    15    16    1
    12    16    17   ar
    13    17    18   ar
    14    18    19   ar
    15    19    22    1
    16    22    23    1
    17    19    20   ar
    18    20    24    1
    19    24    25    1
    20    20    21   ar
    21     3     4    1
    22     4     5    1
    23     5    26    1
    24    26    27    1
    25    27    28    2
    26    27    29   am
    27    29    31    1
    28    31    32    1
    29    32    33   ar
    30    33    34   ar
    31    34    35   ar
    32    35    36   ar
    33    36    37    1
    34    36    38   ar
    35     9    10   ar
    36    10    11   ar
    37    11     6   ar
    38     5     1    1
    39    38    32   ar
    40    21    16   ar
    41    29    30    1
