@<TRIPOS>MOLECULE
*****
 33 37 0 0 0
SMALL
GASTEIGER

@<TRIPOS>ATOM
      1 C         140.5167  138.6210  160.7424 C.ar    1  UNL1        0.0670
      2 C         142.0120  138.5755  160.6330 C.ar    1  UNL1        0.0191
      3 C         142.6606  138.3861  159.2939 C.ar    1  UNL1        0.0203
      4 C         141.8139  138.2422  158.0641 C.ar    1  UNL1        0.0795
      5 C         140.3186  138.2877  158.1735 C.ar    1  UNL1        0.0396
      6 C         139.7478  138.1187  156.7967 C.ar    1  UNL1        0.1216
      7 N         140.8903  137.9688  155.8363 N.ar    1  UNL1       -0.1677
      8 N         142.1673  138.0451  156.6196 N.ar    1  UNL1       -0.2494
      9 C         139.6700  138.4770  159.5126 C.ar    1  UNL1        0.0207
     10 O         141.1246  136.7235  162.9852 O.2     1  UNL1       -0.2665
     11 C         140.1720  137.8616  163.2031 C.ar    1  UNL1        0.2679
     12 C         139.5234  138.0510  164.5422 C.ar    1  UNL1        0.0980
     13 C         138.5708  139.1891  164.7600 C.ar    1  UNL1        0.1453
     14 C         138.2669  140.1378  163.6386 C.ar    1  UNL1        0.0561
     15 C         138.9156  139.9484  162.2994 C.ar    1  UNL1        0.0860
     16 N         139.8681  138.8104  162.0817 N.ar    1  UNL1       -0.2729
     17 O         137.9222  139.3785  166.0992 O.3     1  UNL1       -0.4704
     18 C         138.7232  139.1915  167.3536 C.3     1  UNL1        0.2320
     19 C         139.3594  140.3750  168.0206 C.ar    1  UNL1        0.0212
     20 C         140.0879  141.3970  167.1992 C.ar    1  UNL1       -0.0007
     21 C         140.7240  142.5803  167.8662 C.ar    1  UNL1       -0.0002
     22 C         140.6317  142.7417  169.3546 C.ar    1  UNL1       -0.0000
     23 C         139.9032  141.7197  170.1760 C.ar    1  UNL1       -0.0002
     24 C         139.2671  140.5363  169.5090 C.ar    1  UNL1       -0.0007
     25 C         143.5540  137.9424  156.0573 C.3     1  UNL1        0.1447
     26 C         143.9760  136.7041  155.3235 C.3     1  UNL1        0.0988
     27 N         143.3403  135.3853  155.6502 N.3     1  UNL1       -0.2689
     28 C         142.2231  134.7329  154.8913 C.3     1  UNL1        0.0748
     29 C         141.9027  133.4318  155.5654 C.3     1  UNL1        0.0480
     30 C         142.8219  133.2801  156.7410 C.3     1  UNL1        0.1278
     31 O         142.8480  132.1240  157.6964 O.3     1  UNL1       -0.3830
     32 C         143.7104  134.4874  156.7934 C.3     1  UNL1        0.1017
     33 H         143.5349  132.2726  158.3651 H       1  UNL1        0.2104
@<TRIPOS>BOND
     1    10    11    2
     2    11    12   ar
     3    12    13   ar
     4    13    17    1
     5    17    18    1
     6    18    19    1
     7    19    20   ar
     8    20    21   ar
     9    21    22   ar
    10    22    23   ar
    11    23    24   ar
    12    13    14   ar
    13    14    15   ar
    14    15    16   ar
    15    16     1    1
    16     1     2   ar
    17     2     3   ar
    18     3     4   ar
    19     4     5   ar
    20     5     6   ar
    21     6     7   ar
    22     7     8   ar
    23     8    25    1
    24    25    26    1
    25    26    27    1
    26    27    28    1
    27    28    29    1
    28    29    30    1
    29    30    31    1
    30    30    32    1
    31     5     9   ar
    32    16    11   ar
    33     9     1   ar
    34    24    19   ar
    35     8     4   ar
    36    32    27    1
    37    31    33    1
@<TRIPOS>MOLECULE
*****
 33 37 0 0 0
SMALL
GASTEIGER

@<TRIPOS>ATOM
      1 C         140.7339  138.8671  162.3169 C.ar    1  UNL1        0.0670
      2 C         141.2637  140.1083  162.9716 C.ar    1  UNL1        0.0191
      3 C         140.8537  140.4501  164.3734 C.ar    1  UNL1        0.0203
      4 C         139.9140  139.5508  165.1204 C.ar    1  UNL1        0.0795
      5 C         139.3842  138.3096  164.4657 C.ar    1  UNL1        0.0396
      6 C         138.4794  137.6200  165.4432 C.ar    1  UNL1        0.1216
      7 N         138.4500  138.4349  166.7022 N.ar    1  UNL1       -0.1677
      8 N         139.3366  139.6283  166.5027 N.ar    1  UNL1       -0.2494
      9 C         139.7942  137.9678  163.0639 C.ar    1  UNL1        0.0207
     10 O         143.4737  137.7688  161.7810 O.2     1  UNL1       -0.2665
     11 C         142.5138  137.9761  160.6471 C.ar    1  UNL1        0.2679
     12 C         142.9238  137.6342  159.2453 C.ar    1  UNL1        0.0980
     13 C         141.9638  137.8415  158.1114 C.ar    1  UNL1        0.1453
     14 C         140.5939  138.3907  158.3794 C.ar    1  UNL1        0.0561
     15 C         140.1840  138.7325  159.7812 C.ar    1  UNL1        0.0860
     16 N         141.1439  138.5252  160.9150 N.ar    1  UNL1       -0.2729
     17 O         142.3738  137.4996  156.7096 O.3     1  UNL1       -0.4704
     18 C         141.6719  136.3994  155.9702 C.3     1  UNL1        0.2320
     19 C         142.1319  134.9799  156.1240 C.ar    1  UNL1        0.0212
     20 C         143.2921  134.6604  157.0194 C.ar    1  UNL1       -0.0007
     21 C         143.7520  133.2410  157.1732 C.ar    1  UNL1       -0.0002
     22 C         143.0518  132.1411  156.4316 C.ar    1  UNL1       -0.0000
     23 C         141.8916  132.4607  155.5362 C.ar    1  UNL1       -0.0002
     24 C         141.4316  133.8801  155.3824 C.ar    1  UNL1       -0.0007
     25 C         139.5996  140.7093  167.5088 C.3     1  UNL1        0.1447
     26 C         140.2897  140.3807  168.7995 C.3     1  UNL1        0.0988
     27 N         141.4425  141.2183  169.2681 N.3     1  UNL1       -0.2689
     28 C         142.8891  140.9859  168.9468 C.3     1  UNL1        0.0748
     29 C         143.6917  142.0592  169.6204 C.3     1  UNL1        0.0480
     30 C         142.7411  142.9550  170.3579 C.3     1  UNL1        0.1278
     31 O         143.1149  144.1592  171.1705 O.3     1  UNL1       -0.3830
     32 C         141.3510  142.4353  170.1401 C.3     1  UNL1        0.1017
     33 H         142.3135  144.5604  171.5415 H       1  UNL1        0.2104
@<TRIPOS>BOND
     1    10    11    2
     2    11    12   ar
     3    12    13   ar
     4    13    17    1
     5    17    18    1
     6    18    19    1
     7    19    20   ar
     8    20    21   ar
     9    21    22   ar
    10    22    23   ar
    11    23    24   ar
    12    13    14   ar
    13    14    15   ar
    14    15    16   ar
    15    16     1    1
    16     1     2   ar
    17     2     3   ar
    18     3     4   ar
    19     4     5   ar
    20     5     6   ar
    21     6     7   ar
    22     7     8   ar
    23     8    25    1
    24    25    26    1
    25    26    27    1
    26    27    28    1
    27    28    29    1
    28    29    30    1
    29    30    31    1
    30    30    32    1
    31     5     9   ar
    32    16    11   ar
    33     9     1   ar
    34    24    19   ar
    35     8     4   ar
    36    32    27    1
    37    31    33    1
@<TRIPOS>MOLECULE
*****
 33 37 0 0 0
SMALL
GASTEIGER

@<TRIPOS>ATOM
      1 C         142.0931  143.6656  161.9183 C.ar    1  UNL1        0.0670
      2 C         141.1602  142.6521  162.5119 C.ar    1  UNL1        0.0191
      3 C         141.3777  142.1625  163.9130 C.ar    1  UNL1        0.0203
      4 C         142.5282  142.6865  164.7204 C.ar    1  UNL1        0.0795
      5 C         143.4611  143.7000  164.1268 C.ar    1  UNL1        0.0396
      6 C         144.5005  144.0321  165.1560 C.ar    1  UNL1        0.1216
      7 N         144.2100  143.2238  166.3858 N.ar    1  UNL1       -0.1677
      8 N         142.9910  142.3922  166.1166 N.ar    1  UNL1       -0.2494
      9 C         143.2435  144.1896  162.7257 C.ar    1  UNL1        0.0207
     10 O         140.0764  145.8200  161.3784 O.2     1  UNL1       -0.2665
     11 C         140.8672  145.2324  160.2472 C.ar    1  UNL1        0.2679
     12 C         140.6497  145.7220  158.8462 C.ar    1  UNL1        0.0980
     13 C         141.4405  145.1344  157.7151 C.ar    1  UNL1        0.1453
     14 C         142.4489  144.0572  157.9850 C.ar    1  UNL1        0.0561
     15 C         142.6664  143.5676  159.3862 C.ar    1  UNL1        0.0860
     16 N         141.8756  144.1552  160.5172 N.ar    1  UNL1       -0.2729
     17 O         141.2230  145.6240  156.3140 O.3     1  UNL1       -0.4704
     18 C         139.8485  146.0207  155.8632 C.3     1  UNL1        0.2320
     19 C         139.5109  147.4697  155.6719 C.ar    1  UNL1        0.0212
     20 C         139.9089  148.1719  154.4076 C.ar    1  UNL1       -0.0007
     21 C         139.5713  149.6208  154.2164 C.ar    1  UNL1       -0.0002
     22 C         138.8357  150.3675  155.2894 C.ar    1  UNL1       -0.0000
     23 C         138.4377  149.6653  156.5537 C.ar    1  UNL1       -0.0002
     24 C         138.7753  148.2164  156.7449 C.ar    1  UNL1       -0.0007
     25 C         142.3478  141.4344  167.0752 C.3     1  UNL1        0.1447
     26 C         142.5784  139.9594  166.9296 C.3     1  UNL1        0.0988
     27 N         141.7681  139.1669  165.9470 N.3     1  UNL1       -0.2689
     28 C         140.2741  139.1888  165.8154 C.3     1  UNL1        0.0748
     29 C         139.8923  138.2488  164.7106 C.3     1  UNL1        0.0480
     30 C         141.1503  137.6461  164.1593 C.3     1  UNL1        0.1278
     31 O         141.2344  136.6506  163.0403 O.3     1  UNL1       -0.3830
     32 C         142.3097  138.2135  164.9235 C.3     1  UNL1        0.1017
     33 H         142.1634  136.4227  162.8794 H       1  UNL1        0.2104
@<TRIPOS>BOND
     1    10    11    2
     2    11    12   ar
     3    12    13   ar
     4    13    17    1
     5    17    18    1
     6    18    19    1
     7    19    20   ar
     8    20    21   ar
     9    21    22   ar
    10    22    23   ar
    11    23    24   ar
    12    13    14   ar
    13    14    15   ar
    14    15    16   ar
    15    16     1    1
    16     1     2   ar
    17     2     3   ar
    18     3     4   ar
    19     4     5   ar
    20     5     6   ar
    21     6     7   ar
    22     7     8   ar
    23     8    25    1
    24    25    26    1
    25    26    27    1
    26    27    28    1
    27    28    29    1
    28    29    30    1
    29    30    31    1
    30    30    32    1
    31     5     9   ar
    32    16    11   ar
    33     9     1   ar
    34    24    19   ar
    35     8     4   ar
    36    32    27    1
    37    31    33    1
@<TRIPOS>MOLECULE
*****
 33 37 0 0 0
SMALL
GASTEIGER

@<TRIPOS>ATOM
      1 C         141.8072  143.7520  161.2963 C.ar    1  UNL1        0.0670
      2 C         141.0704  142.5246  161.7440 C.ar    1  UNL1        0.0191
      3 C         141.3722  141.9146  163.0807 C.ar    1  UNL1        0.0203
      4 C         142.4108  142.5320  163.9696 C.ar    1  UNL1        0.0795
      5 C         143.1476  143.7594  163.5218 C.ar    1  UNL1        0.0396
      6 C         144.1113  144.1426  164.6055 C.ar    1  UNL1        0.1216
      7 N         143.9700  143.1521  165.7231 N.ar    1  UNL1       -0.1677
      8 N         142.9191  142.1566  165.3301 N.ar    1  UNL1       -0.2494
      9 C         142.8458  144.3694  162.1852 C.ar    1  UNL1        0.0207
     10 O         139.5507  145.7089  161.0156 O.2     1  UNL1       -0.2665
     11 C         140.3772  145.3406  159.8192 C.ar    1  UNL1        0.2679
     12 C         140.0754  145.9506  158.4826 C.ar    1  UNL1        0.0980
     13 C         140.9019  145.5823  157.2862 C.ar    1  UNL1        0.1453
     14 C         142.0301  144.6039  157.4265 C.ar    1  UNL1        0.0561
     15 C         142.3319  143.9938  158.7632 C.ar    1  UNL1        0.0860
     16 N         141.5054  144.3621  159.9595 N.ar    1  UNL1       -0.2729
     17 O         140.6001  146.1924  155.9495 O.3     1  UNL1       -0.4704
     18 C         139.2803  146.8648  155.7128 C.3     1  UNL1        0.2320
     19 C         139.2377  148.2868  155.2371 C.ar    1  UNL1        0.0212
     20 C         138.5514  149.3338  156.0633 C.ar    1  UNL1       -0.0007
     21 C         138.5088  150.7557  155.5876 C.ar    1  UNL1       -0.0002
     22 C         139.1525  151.1306  154.2856 C.ar    1  UNL1       -0.0000
     23 C         139.8388  150.0835  153.4593 C.ar    1  UNL1       -0.0002
     24 C         139.8814  148.6616  153.9351 C.ar    1  UNL1       -0.0007
     25 C         142.4575  140.9906  166.1530 C.3     1  UNL1        0.1447
     26 C         141.1142  141.0280  166.8195 C.3     1  UNL1        0.0988
     27 N         141.0194  141.0272  168.3165 N.3     1  UNL1       -0.2689
     28 C         140.0347  140.2484  169.1372 C.3     1  UNL1        0.0748
     29 C         140.2994  140.5451  170.5835 C.3     1  UNL1        0.0480
     30 C         141.4478  141.5072  170.6567 C.3     1  UNL1        0.1278
     31 O         142.0462  142.0723  171.9109 O.3     1  UNL1       -0.3830
     32 C         141.8928  141.8052  169.2556 C.3     1  UNL1        0.1017
     33 H         142.7756  142.6689  171.6807 H       1  UNL1        0.2104
@<TRIPOS>BOND
     1    10    11    2
     2    11    12   ar
     3    12    13   ar
     4    13    17    1
     5    17    18    1
     6    18    19    1
     7    19    20   ar
     8    20    21   ar
     9    21    22   ar
    10    22    23   ar
    11    23    24   ar
    12    13    14   ar
    13    14    15   ar
    14    15    16   ar
    15    16     1    1
    16     1     2   ar
    17     2     3   ar
    18     3     4   ar
    19     4     5   ar
    20     5     6   ar
    21     6     7   ar
    22     7     8   ar
    23     8    25    1
    24    25    26    1
    25    26    27    1
    26    27    28    1
    27    28    29    1
    28    29    30    1
    29    30    31    1
    30    30    32    1
    31     5     9   ar
    32    16    11   ar
    33     9     1   ar
    34    24    19   ar
    35     8     4   ar
    36    32    27    1
    37    31    33    1
@<TRIPOS>MOLECULE
*****
 33 37 0 0 0
SMALL
GASTEIGER

@<TRIPOS>ATOM
      1 C         141.8870  143.6813  160.7590 C.ar    1  UNL1        0.0670
      2 C         141.1453  142.4240  161.1039 C.ar    1  UNL1        0.0191
      3 C         141.3493  141.7757  162.4410 C.ar    1  UNL1        0.0203
      4 C         142.2951  142.3847  163.4333 C.ar    1  UNL1        0.0795
      5 C         143.0369  143.6420  163.0884 C.ar    1  UNL1        0.0396
      6 C         143.8974  144.0089  164.2609 C.ar    1  UNL1        0.1216
      7 N         143.6875  142.9783  165.3305 N.ar    1  UNL1       -0.1677
      8 N         142.6972  141.9745  164.8190 N.ar    1  UNL1       -0.2494
      9 C         142.8328  144.2903  161.7513 C.ar    1  UNL1        0.0207
     10 O         143.7698  143.0859  158.5005 O.2     1  UNL1       -0.2665
     11 C         142.6244  144.0319  158.2925 C.ar    1  UNL1        0.2679
     12 C         142.4205  144.6802  156.9553 C.ar    1  UNL1        0.0980
     13 C         141.2751  145.6263  156.7474 C.ar    1  UNL1        0.1453
     14 C         140.3337  145.9240  157.8766 C.ar    1  UNL1        0.0561
     15 C         140.5377  145.2756  159.2138 C.ar    1  UNL1        0.0860
     16 N         141.6830  144.3296  159.4217 N.ar    1  UNL1       -0.2729
     17 O         141.0711  146.2746  155.4102 O.3     1  UNL1       -0.4704
     18 C         139.7082  146.7568  155.0106 C.3     1  UNL1        0.2320
     19 C         139.4040  148.2257  155.0052 C.ar    1  UNL1        0.0212
     20 C         138.6403  148.8377  156.1419 C.ar    1  UNL1       -0.0007
     21 C         138.3362  150.3065  156.1364 C.ar    1  UNL1       -0.0002
     22 C         138.7958  151.1633  154.9942 C.ar    1  UNL1       -0.0000
     23 C         139.5596  150.5513  153.8575 C.ar    1  UNL1       -0.0002
     24 C         139.8637  149.0825  153.8630 C.ar    1  UNL1       -0.0007
     25 C         142.1968  140.7718  165.5626 C.3     1  UNL1        0.1447
     26 C         140.8397  140.7957  166.2010 C.3     1  UNL1        0.0988
     27 N         139.6741  141.3849  165.4633 N.3     1  UNL1       -0.2689
     28 C         139.2802  142.8321  165.4488 C.3     1  UNL1        0.0748
     29 C         138.0604  142.9718  164.5871 C.3     1  UNL1        0.0480
     30 C         137.7004  141.6110  164.0691 C.3     1  UNL1        0.1278
     31 O         136.5457  141.2876  163.1678 O.3     1  UNL1       -0.3830
     32 C         138.6977  140.6301  164.6107 C.3     1  UNL1        0.1017
     33 H         136.5370  140.3355  162.9825 H       1  UNL1        0.2104
@<TRIPOS>BOND
     1    10    11    2
     2    11    12   ar
     3    12    13   ar
     4    13    17    1
     5    17    18    1
     6    18    19    1
     7    19    20   ar
     8    20    21   ar
     9    21    22   ar
    10    22    23   ar
    11    23    24   ar
    12    13    14   ar
    13    14    15   ar
    14    15    16   ar
    15    16     1    1
    16     1     2   ar
    17     2     3   ar
    18     3     4   ar
    19     4     5   ar
    20     5     6   ar
    21     6     7   ar
    22     7     8   ar
    23     8    25    1
    24    25    26    1
    25    26    27    1
    26    27    28    1
    27    28    29    1
    28    29    30    1
    29    30    31    1
    30    30    32    1
    31     5     9   ar
    32    16    11   ar
    33     9     1   ar
    34    24    19   ar
    35     8     4   ar
    36    32    27    1
    37    31    33    1
@<TRIPOS>MOLECULE
*****
 33 37 0 0 0
SMALL
GASTEIGER

@<TRIPOS>ATOM
      1 C         140.6408  139.2058  161.1056 C.ar    1  UNL1        0.0670
      2 C         141.0939  140.5778  161.5085 C.ar    1  UNL1        0.0191
      3 C         140.8051  141.0876  162.8893 C.ar    1  UNL1        0.0203
      4 C         140.0633  140.2254  163.8672 C.ar    1  UNL1        0.0795
      5 C         139.6102  138.8534  163.4643 C.ar    1  UNL1        0.0396
      6 C         138.9043  138.2361  164.6350 C.ar    1  UNL1        0.1216
      7 N         138.9211  139.2265  165.7614 N.ar    1  UNL1       -0.1677
      8 N         139.6374  140.4560  165.2869 N.ar    1  UNL1       -0.2494
      9 C         139.8990  138.3436  162.0835 C.ar    1  UNL1        0.0207
     10 O         138.5098  139.2992  158.9961 O.2     1  UNL1       -0.2665
     11 C         139.8641  138.7426  158.6700 C.ar    1  UNL1        0.2679
     12 C         140.1528  138.2328  157.2892 C.ar    1  UNL1        0.0980
     13 C         141.5071  137.6762  156.9631 C.ar    1  UNL1        0.1453
     14 C         142.5726  137.6295  158.0178 C.ar    1  UNL1        0.0561
     15 C         142.2838  138.1394  159.3987 C.ar    1  UNL1        0.0860
     16 N         140.9296  138.6959  159.7247 N.ar    1  UNL1       -0.2729
     17 O         141.7958  137.1663  155.5823 O.3     1  UNL1       -0.4704
     18 C         142.9602  136.2499  155.3495 C.3     1  UNL1        0.2320
     19 C         142.8668  134.8045  155.7399 C.ar    1  UNL1        0.0212
     20 C         143.8820  134.2124  156.6720 C.ar    1  UNL1       -0.0007
     21 C         143.7886  132.7671  157.0624 C.ar    1  UNL1       -0.0002
     22 C         142.6801  131.9140  156.5208 C.ar    1  UNL1       -0.0000
     23 C         141.6649  132.5062  155.5887 C.ar    1  UNL1       -0.0002
     24 C         141.7583  133.9514  155.1983 C.ar    1  UNL1       -0.0007
     25 C         139.8844  141.6980  166.0909 C.3     1  UNL1        0.1447
     26 C         141.0940  141.7921  166.9730 C.3     1  UNL1        0.0988
     27 N         141.1667  140.9845  168.2349 N.3     1  UNL1       -0.2689
     28 C         142.4026  140.3610  168.8126 C.3     1  UNL1        0.0748
     29 C         142.0160  139.6497  170.0754 C.3     1  UNL1        0.0480
     30 C         140.5412  139.8336  170.2781 C.3     1  UNL1        0.1278
     31 O         139.7331  139.2883  171.4182 O.3     1  UNL1       -0.3830
     32 C         140.0163  140.6586  169.1406 C.3     1  UNL1        0.1017
     33 H         138.8054  139.5510  171.3117 H       1  UNL1        0.2104
@<TRIPOS>BOND
     1    10    11    2
     2    11    12   ar
     3    12    13   ar
     4    13    17    1
     5    17    18    1
     6    18    19    1
     7    19    20   ar
     8    20    21   ar
     9    21    22   ar
    10    22    23   ar
    11    23    24   ar
    12    13    14   ar
    13    14    15   ar
    14    15    16   ar
    15    16     1    1
    16     1     2   ar
    17     2     3   ar
    18     3     4   ar
    19     4     5   ar
    20     5     6   ar
    21     6     7   ar
    22     7     8   ar
    23     8    25    1
    24    25    26    1
    25    26    27    1
    26    27    28    1
    27    28    29    1
    28    29    30    1
    29    30    31    1
    30    30    32    1
    31     5     9   ar
    32    16    11   ar
    33     9     1   ar
    34    24    19   ar
    35     8     4   ar
    36    32    27    1
    37    31    33    1
@<TRIPOS>MOLECULE
*****
 33 37 0 0 0
SMALL
GASTEIGER

@<TRIPOS>ATOM
      1 C         141.3889  139.0619  160.5820 C.ar    1  UNL1        0.0670
      2 C         141.3270  140.5015  160.9988 C.ar    1  UNL1        0.0191
      3 C         141.3020  140.8603  162.4550 C.ar    1  UNL1        0.0203
      4 C         141.3389  139.7794  163.4945 C.ar    1  UNL1        0.0795
      5 C         141.4008  138.3399  163.0777 C.ar    1  UNL1        0.0396
      6 C         141.4265  137.4986  164.3193 C.ar    1  UNL1        0.1216
      7 N         141.3804  138.4182  165.5034 N.ar    1  UNL1       -0.1677
      8 N         141.3263  139.8279  164.9937 N.ar    1  UNL1       -0.2494
      9 C         141.4258  137.9811  161.6215 C.ar    1  UNL1        0.0207
     10 O         143.9693  139.1675  159.0554 O.2     1  UNL1       -0.2665
     11 C         142.7041  138.7559  158.3624 C.ar    1  UNL1        0.2679
     12 C         142.7292  138.3971  156.9062 C.ar    1  UNL1        0.0980
     13 C         141.4640  137.9855  156.2133 C.ar    1  UNL1        0.1453
     14 C         140.1739  137.9328  156.9766 C.ar    1  UNL1        0.0561
     15 C         140.1488  138.2916  158.4329 C.ar    1  UNL1        0.0860
     16 N         141.4139  138.7031  159.1258 N.ar    1  UNL1       -0.2729
     17 O         141.4891  137.6267  154.7570 O.3     1  UNL1       -0.4704
     18 C         142.4397  136.5787  154.2592 C.3     1  UNL1        0.2320
     19 C         142.5349  135.2573  154.9628 C.ar    1  UNL1        0.0212
     20 C         141.4346  134.2485  154.8163 C.ar    1  UNL1       -0.0007
     21 C         141.5299  132.9273  155.5199 C.ar    1  UNL1       -0.0002
     22 C         142.7255  132.6148  156.3701 C.ar    1  UNL1       -0.0000
     23 C         143.8259  133.6237  156.5167 C.ar    1  UNL1       -0.0002
     24 C         143.7306  134.9449  155.8130 C.ar    1  UNL1       -0.0007
     25 C         141.2695  141.0682  165.8353 C.3     1  UNL1        0.1447
     26 C         139.9459  141.6962  166.1572 C.3     1  UNL1        0.0988
     27 N         139.0228  142.1098  165.0495 N.3     1  UNL1       -0.2689
     28 C         138.0454  141.2216  164.3384 C.3     1  UNL1        0.0748
     29 C         137.3336  142.0471  163.3080 C.3     1  UNL1        0.0480
     30 C         137.8711  143.4455  163.3822 C.3     1  UNL1        0.1278
     31 O         137.4403  144.6022  162.5297 O.3     1  UNL1       -0.3830
     32 C         138.9151  143.4843  164.4586 C.3     1  UNL1        0.1017
     33 H         137.9433  145.3930  162.7796 H       1  UNL1        0.2104
@<TRIPOS>BOND
     1    10    11    2
     2    11    12   ar
     3    12    13   ar
     4    13    17    1
     5    17    18    1
     6    18    19    1
     7    19    20   ar
     8    20    21   ar
     9    21    22   ar
    10    22    23   ar
    11    23    24   ar
    12    13    14   ar
    13    14    15   ar
    14    15    16   ar
    15    16     1    1
    16     1     2   ar
    17     2     3   ar
    18     3     4   ar
    19     4     5   ar
    20     5     6   ar
    21     6     7   ar
    22     7     8   ar
    23     8    25    1
    24    25    26    1
    25    26    27    1
    26    27    28    1
    27    28    29    1
    28    29    30    1
    29    30    31    1
    30    30    32    1
    31     5     9   ar
    32    16    11   ar
    33     9     1   ar
    34    24    19   ar
    35     8     4   ar
    36    32    27    1
    37    31    33    1
@<TRIPOS>MOLECULE
*****
 33 37 0 0 0
SMALL
GASTEIGER

@<TRIPOS>ATOM
      1 C         140.0581  139.0900  158.9774 C.ar    1  UNL1        0.0670
      2 C         139.5895  138.4940  160.2717 C.ar    1  UNL1        0.0191
      3 C         138.8834  139.3511  161.2799 C.ar    1  UNL1        0.0203
      4 C         138.6458  140.8043  160.9939 C.ar    1  UNL1        0.0795
      5 C         139.1143  141.4003  159.6996 C.ar    1  UNL1        0.0396
      6 C         138.7409  142.8531  159.6963 C.ar    1  UNL1        0.1216
      7 N         138.0415  143.1549  160.9886 N.ar    1  UNL1       -0.1677
      8 N         137.9827  141.8887  161.7905 N.ar    1  UNL1       -0.2494
      9 C         139.8205  140.5432  158.6914 C.ar    1  UNL1        0.0207
     10 O         143.0402  138.7845  159.0942 O.2     1  UNL1       -0.2665
     11 C         142.2553  138.0801  158.0275 C.ar    1  UNL1        0.2679
     12 C         142.9615  137.2230  157.0192 C.ar    1  UNL1        0.0980
     13 C         142.1767  136.5186  155.9525 C.ar    1  UNL1        0.1453
     14 C         140.6856  136.6713  155.8941 C.ar    1  UNL1        0.0561
     15 C         139.9794  137.5285  156.9024 C.ar    1  UNL1        0.0860
     16 N         140.7643  138.2329  157.9691 N.ar    1  UNL1       -0.2729
     17 O         142.8829  135.6615  154.9442 O.3     1  UNL1       -0.4704
     18 C         142.6398  134.1817  154.9162 C.3     1  UNL1        0.2320
     19 C         143.4907  133.2660  155.7455 C.ar    1  UNL1        0.0212
     20 C         143.8657  131.9115  155.2216 C.ar    1  UNL1       -0.0007
     21 C         144.7166  130.9959  156.0508 C.ar    1  UNL1       -0.0002
     22 C         145.1924  131.4348  157.4040 C.ar    1  UNL1       -0.0000
     23 C         144.8173  132.7893  157.9278 C.ar    1  UNL1       -0.0002
     24 C         143.9664  133.7049  157.0986 C.ar    1  UNL1       -0.0007
     25 C         137.3687  141.7340  163.1503 C.3     1  UNL1        0.1447
     26 C         138.0980  142.2304  164.3634 C.3     1  UNL1        0.0988
     27 N         139.3982  142.9624  164.2096 N.3     1  UNL1       -0.2689
     28 C         140.7663  142.3495  164.2590 C.3     1  UNL1        0.0748
     29 C         141.7721  143.4442  164.0593 C.3     1  UNL1        0.0480
     30 C         141.0257  144.7337  163.8866 C.3     1  UNL1        0.1278
     31 O         141.6388  146.0840  163.6606 O.3     1  UNL1       -0.3830
     32 C         139.5585  144.4360  163.9795 C.3     1  UNL1        0.1017
     33 H         140.9367  146.7487  163.5818 H       1  UNL1        0.2104
@<TRIPOS>BOND
     1    10    11    2
     2    11    12   ar
     3    12    13   ar
     4    13    17    1
     5    17    18    1
     6    18    19    1
     7    19    20   ar
     8    20    21   ar
     9    21    22   ar
    10    22    23   ar
    11    23    24   ar
    12    13    14   ar
    13    14    15   ar
    14    15    16   ar
    15    16     1    1
    16     1     2   ar
    17     2     3   ar
    18     3     4   ar
    19     4     5   ar
    20     5     6   ar
    21     6     7   ar
    22     7     8   ar
    23     8    25    1
    24    25    26    1
    25    26    27    1
    26    27    28    1
    27    28    29    1
    28    29    30    1
    29    30    31    1
    30    30    32    1
    31     5     9   ar
    32    16    11   ar
    33     9     1   ar
    34    24    19   ar
    35     8     4   ar
    36    32    27    1
    37    31    33    1
@<TRIPOS>MOLECULE
*****
 33 37 0 0 0
SMALL
GASTEIGER

@<TRIPOS>ATOM
      1 C         140.4942  143.8494  160.8905 C.ar    1  UNL1        0.0670
      2 C         141.1365  142.5456  161.2612 C.ar    1  UNL1        0.0191
      3 C         141.0827  142.0594  162.6791 C.ar    1  UNL1        0.0203
      4 C         140.3864  142.8769  163.7264 C.ar    1  UNL1        0.0795
      5 C         139.7441  144.1807  163.3558 C.ar    1  UNL1        0.0396
      6 C         139.1337  144.7655  164.5949 C.ar    1  UNL1        0.1216
      7 N         139.3988  143.8231  165.7314 N.ar    1  UNL1       -0.1677
      8 N         140.1730  142.6558  165.1947 N.ar    1  UNL1       -0.2494
      9 C         139.7980  144.6670  161.9378 C.ar    1  UNL1        0.0207
     10 O         138.6012  142.7324  158.8488 O.2     1  UNL1       -0.2665
     11 C         139.6016  143.7772  158.4516 C.ar    1  UNL1        0.2679
     12 C         139.6554  144.2635  157.0337 C.ar    1  UNL1        0.0980
     13 C         140.6558  145.3084  156.6366 C.ar    1  UNL1        0.1453
     14 C         141.6023  145.8669  157.6575 C.ar    1  UNL1        0.0561
     15 C         141.5484  145.3806  159.0755 C.ar    1  UNL1        0.0860
     16 N         140.5481  144.3358  159.4725 N.ar    1  UNL1       -0.2729
     17 O         140.7096  145.7946  155.2186 O.3     1  UNL1       -0.4704
     18 C         139.5293  146.5036  154.6236 C.3     1  UNL1        0.2320
     19 C         139.3255  147.9673  154.8810 C.ar    1  UNL1        0.0212
     20 C         139.8135  148.9787  153.8866 C.ar    1  UNL1       -0.0007
     21 C         139.6097  150.4423  154.1440 C.ar    1  UNL1       -0.0002
     22 C         138.9180  150.8945  155.3958 C.ar    1  UNL1       -0.0000
     23 C         138.4300  149.8831  156.3902 C.ar    1  UNL1       -0.0002
     24 C         138.6338  148.4195  156.1328 C.ar    1  UNL1       -0.0007
     25 C         140.6501  141.4749  165.9870 C.3     1  UNL1        0.1447
     26 C         140.0044  141.1419  167.2993 C.3     1  UNL1        0.0988
     27 N         140.7041  141.4716  168.5845 N.3     1  UNL1       -0.2689
     28 C         141.1759  142.8311  169.0080 C.3     1  UNL1        0.0748
     29 C         141.8181  142.6993  170.3571 C.3     1  UNL1        0.0480
     30 C         141.7432  141.2585  170.7674 C.3     1  UNL1        0.1278
     31 O         142.2653  140.6782  172.0484 O.3     1  UNL1       -0.3830
     32 C         141.0547  140.4997  169.6719 C.3     1  UNL1        0.1017
     33 H         142.0901  139.7243  172.0663 H       1  UNL1        0.2104
@<TRIPOS>BOND
     1    10    11    2
     2    11    12   ar
     3    12    13   ar
     4    13    17    1
     5    17    18    1
     6    18    19    1
     7    19    20   ar
     8    20    21   ar
     9    21    22   ar
    10    22    23   ar
    11    23    24   ar
    12    13    14   ar
    13    14    15   ar
    14    15    16   ar
    15    16     1    1
    16     1     2   ar
    17     2     3   ar
    18     3     4   ar
    19     4     5   ar
    20     5     6   ar
    21     6     7   ar
    22     7     8   ar
    23     8    25    1
    24    25    26    1
    25    26    27    1
    26    27    28    1
    27    28    29    1
    28    29    30    1
    29    30    31    1
    30    30    32    1
    31     5     9   ar
    32    16    11   ar
    33     9     1   ar
    34    24    19   ar
    35     8     4   ar
    36    32    27    1
    37    31    33    1
