@<TRIPOS>MOLECULE
*****
 33 37 0 0 0
SMALL
GASTEIGER

@<TRIPOS>ATOM
      1 C         140.9268  141.9927  168.0917 C.3     1  UNL1        0.0840
      2 C         140.4338  143.0659  169.0164 C.3     1  UNL1        0.0095
      3 C         141.3349  143.6053  170.0874 C.3     1  UNL1        0.0005
      4 C         142.7289  143.0713  170.2337 C.3     1  UNL1        0.0005
      5 C         143.2219  141.9981  169.3091 C.3     1  UNL1        0.0082
      6 C         142.3209  141.4587  168.2380 C.3     1  UNL1        0.0705
      7 O         139.3256  140.1417  167.2198 O.2     1  UNL1       -0.2748
      8 C         140.0257  141.4533  167.0207 C.2     1  UNL1        0.2262
      9 N         139.8247  142.2256  165.7504 N.am    1  UNL1       -0.2802
     10 H         140.2842  143.0864  165.6198 H       1  UNL1        0.1550
     11 C         138.9236  141.6862  164.6794 C.ar    1  UNL1        0.1078
     12 C         137.6949  142.3569  164.1406 C.ar    1  UNL1        0.1383
     13 N         137.1050  141.4666  163.0874 N.ar    1  UNL1       -0.1607
     14 N         137.9692  140.2457  162.9751 N.ar    1  UNL1       -0.2093
     15 C         137.8778  139.0280  162.1041 C.ar    1  UNL1        0.1037
     16 C         138.9105  137.9460  162.2170 C.ar    1  UNL1        0.0414
     17 C         140.0345  138.0817  163.2010 C.ar    1  UNL1        0.1022
     18 N         140.1259  139.2994  164.0720 N.ar    1  UNL1       -0.2239
     19 C         139.0932  140.3814  163.9591 C.ar    1  UNL1        0.1789
     20 C         142.8139  140.3854  167.3133 C.2     1  UNL1        0.1731
     21 O         142.9684  138.9790  167.8115 O.2     1  UNL1       -0.2913
     22 C         143.1523  140.7185  165.8905 C.ar    1  UNL1        0.0347
     23 C         143.3326  139.6198  164.8854 C.ar    1  UNL1        0.0029
     24 C         143.6710  139.9530  163.4626 C.ar    1  UNL1        0.0016
     25 C         143.8291  141.3849  163.0448 C.ar    1  UNL1        0.0171
     26 C         143.6487  142.4837  164.0498 C.ar    1  UNL1        0.0016
     27 C         143.3103  142.1505  165.4727 C.ar    1  UNL1        0.0029
     28 C         144.1675  141.7181  161.6220 C.ar    1  UNL1        0.0754
     29 C         143.5174  141.1364  160.4017 C.ar    1  UNL1        0.0409
     30 C         144.1635  141.7502  159.1951 C.ar    1  UNL1        0.1214
     31 N         145.2129  142.7112  159.6697 N.ar    1  UNL1       -0.1711
     32 N         145.2154  142.6913  161.1695 N.ar    1  UNL1       -0.2757
     33 H         145.8018  143.2236  161.7543 H       1  UNL1        0.1889
@<TRIPOS>BOND
     1     7     8    2
     2     8     9   am
     3     9    11    1
     4    11    12   ar
     5    12    13   ar
     6    13    14   ar
     7    14    15   ar
     8    15    16   ar
     9    16    17   ar
    10    17    18   ar
    11    18    19   ar
    12     1     8    1
    13     1     2    1
    14     2     3    1
    15     3     4    1
    16     4     5    1
    17     5     6    1
    18     6    20    1
    19    20    21    2
    20    20    22    1
    21    22    23   ar
    22    23    24   ar
    23    24    25   ar
    24    25    28    1
    25    28    29   ar
    26    29    30   ar
    27    30    31   ar
    28    31    32   ar
    29    25    26   ar
    30    26    27   ar
    31    19    11   ar
    32     6     1    1
    33    27    22   ar
    34    19    14   ar
    35    32    28   ar
    36     9    10    1
    37    32    33    1
@<TRIPOS>MOLECULE
*****
 33 37 0 0 0
SMALL
GASTEIGER

@<TRIPOS>ATOM
      1 C         140.5188  140.4579  167.8623 C.3     1  UNL1        0.0840
      2 C         139.4757  139.8801  168.7723 C.3     1  UNL1        0.0095
      3 C         138.9962  140.6649  169.9573 C.3     1  UNL1        0.0005
      4 C         139.5599  142.0275  170.2322 C.3     1  UNL1        0.0005
      5 C         140.6030  142.6053  169.3222 C.3     1  UNL1        0.0082
      6 C         141.0825  141.8205  168.1372 C.3     1  UNL1        0.0705
      7 O         142.3041  138.9380  166.7431 O.2     1  UNL1       -0.2748
      8 C         140.9982  139.6731  166.6773 C.2     1  UNL1        0.2262
      9 N         140.1717  139.6233  165.4264 N.am    1  UNL1       -0.2802
     10 H         139.3146  140.1057  165.3832 H       1  UNL1        0.1550
     11 C         140.6512  138.8385  164.2414 C.ar    1  UNL1        0.1078
     12 C         139.9858  137.6271  163.6584 C.ar    1  UNL1        0.1383
     13 N         140.8036  137.1673  162.4881 N.ar    1  UNL1       -0.1607
     14 N         141.9744  138.0944  162.3478 N.ar    1  UNL1       -0.2093
     15 C         143.1141  138.1315  161.3733 C.ar    1  UNL1        0.1037
     16 C         144.1596  139.2015  161.4825 C.ar    1  UNL1        0.0414
     17 C         144.0654  140.2344  162.5661 C.ar    1  UNL1        0.1022
     18 N         142.9257  140.1973  163.5406 N.ar    1  UNL1       -0.2239
     19 C         141.8802  139.1273  163.4314 C.ar    1  UNL1        0.1789
     20 C         142.1256  142.3982  167.2272 C.2     1  UNL1        0.1731
     21 O         143.5769  142.3032  167.5941 O.2     1  UNL1       -0.2913
     22 C         141.7174  143.0710  165.9502 C.ar    1  UNL1        0.0347
     23 C         140.2734  143.3903  165.6989 C.ar    1  UNL1        0.0029
     24 C         139.8653  144.0631  164.4220 C.ar    1  UNL1        0.0016
     25 C         140.9010  144.4167  163.3962 C.ar    1  UNL1        0.0171
     26 C         142.3450  144.0975  163.6474 C.ar    1  UNL1        0.0016
     27 C         142.7531  143.4247  164.9245 C.ar    1  UNL1        0.0029
     28 C         140.4928  145.0896  162.1193 C.ar    1  UNL1        0.0754
     29 C         140.8081  144.6137  160.7321 C.ar    1  UNL1        0.0409
     30 C         140.2078  145.5864  159.7607 C.ar    1  UNL1        0.1214
     31 N         139.5215  146.6633  160.5476 N.ar    1  UNL1       -0.1711
     32 N         139.6976  146.3563  162.0052 N.ar    1  UNL1       -0.2757
     33 H         139.3519  146.8921  162.7553 H       1  UNL1        0.1889
@<TRIPOS>BOND
     1     7     8    2
     2     8     9   am
     3     9    11    1
     4    11    12   ar
     5    12    13   ar
     6    13    14   ar
     7    14    15   ar
     8    15    16   ar
     9    16    17   ar
    10    17    18   ar
    11    18    19   ar
    12     1     8    1
    13     1     2    1
    14     2     3    1
    15     3     4    1
    16     4     5    1
    17     5     6    1
    18     6    20    1
    19    20    21    2
    20    20    22    1
    21    22    23   ar
    22    23    24   ar
    23    24    25   ar
    24    25    28    1
    25    28    29   ar
    26    29    30   ar
    27    30    31   ar
    28    31    32   ar
    29    25    26   ar
    30    26    27   ar
    31    19    11   ar
    32     6     1    1
    33    27    22   ar
    34    19    14   ar
    35    32    28   ar
    36     9    10    1
    37    32    33    1
@<TRIPOS>MOLECULE
*****
 33 37 0 0 0
SMALL
GASTEIGER

@<TRIPOS>ATOM
      1 C         141.8536  140.1815  168.1311 C.3     1  UNL1        0.0840
      2 C         142.5966  140.3839  169.4183 C.3     1  UNL1        0.0095
      3 C         141.8425  140.6769  170.6815 C.3     1  UNL1        0.0005
      4 C         140.3455  140.7675  170.6572 C.3     1  UNL1        0.0005
      5 C         139.6025  140.5651  169.3700 C.3     1  UNL1        0.0082
      6 C         140.3566  140.2720  168.1069 C.3     1  UNL1        0.0705
      7 O         143.0877  138.4954  166.5870 O.2     1  UNL1       -0.2748
      8 C         142.6077  139.8884  166.8679 C.2     1  UNL1        0.2262
      9 N         142.8819  140.9886  165.8857 N.am    1  UNL1       -0.2802
     10 H         142.5669  141.9029  166.0701 H       1  UNL1        0.1550
     11 C         143.6360  140.6956  164.6226 C.ar    1  UNL1        0.1078
     12 C         144.9232  141.3363  164.1954 C.ar    1  UNL1        0.1383
     13 N         145.3180  140.7471  162.8737 N.ar    1  UNL1       -0.1607
     14 N         144.2747  139.7422  162.4840 N.ar    1  UNL1       -0.2093
     15 C         144.1371  138.8521  161.2846 C.ar    1  UNL1        0.1037
     16 C         142.9598  137.9301  161.1660 C.ar    1  UNL1        0.0414
     17 C         141.9203  137.8983  162.2469 C.ar    1  UNL1        0.1022
     18 N         142.0580  138.7884  163.4464 N.ar    1  UNL1       -0.2239
     19 C         143.2352  139.7104  163.5649 C.ar    1  UNL1        0.1789
     20 C         139.6136  140.0696  166.8196 C.2     1  UNL1        0.1731
     21 O         138.8398  138.8051  166.5911 O.2     1  UNL1       -0.2913
     22 C         139.6446  141.1317  165.7608 C.ar    1  UNL1        0.0347
     23 C         139.4174  140.7654  164.3241 C.ar    1  UNL1        0.0029
     24 C         139.4484  141.8275  163.2654 C.ar    1  UNL1        0.0016
     25 C         139.7064  143.2560  163.6433 C.ar    1  UNL1        0.0171
     26 C         139.9335  143.6224  165.0801 C.ar    1  UNL1        0.0016
     27 C         139.9026  142.5602  166.1388 C.ar    1  UNL1        0.0029
     28 C         139.7373  144.3181  162.5846 C.ar    1  UNL1        0.0754
     29 C         140.7808  144.4694  161.5177 C.ar    1  UNL1        0.0409
     30 C         140.4186  145.6602  160.6805 C.ar    1  UNL1        0.1214
     31 N         139.1513  146.2448  161.2300 N.ar    1  UNL1       -0.1711
     32 N         138.7302  145.4154  162.4068 N.ar    1  UNL1       -0.2757
     33 H         137.9328  145.5649  162.9645 H       1  UNL1        0.1889
@<TRIPOS>BOND
     1     7     8    2
     2     8     9   am
     3     9    11    1
     4    11    12   ar
     5    12    13   ar
     6    13    14   ar
     7    14    15   ar
     8    15    16   ar
     9    16    17   ar
    10    17    18   ar
    11    18    19   ar
    12     1     8    1
    13     1     2    1
    14     2     3    1
    15     3     4    1
    16     4     5    1
    17     5     6    1
    18     6    20    1
    19    20    21    2
    20    20    22    1
    21    22    23   ar
    22    23    24   ar
    23    24    25   ar
    24    25    28    1
    25    28    29   ar
    26    29    30   ar
    27    30    31   ar
    28    31    32   ar
    29    25    26   ar
    30    26    27   ar
    31    19    11   ar
    32     6     1    1
    33    27    22   ar
    34    19    14   ar
    35    32    28   ar
    36     9    10    1
    37    32    33    1
@<TRIPOS>MOLECULE
*****
 33 37 0 0 0
SMALL
GASTEIGER

@<TRIPOS>ATOM
      1 C         141.9864  141.6495  168.2857 C.3     1  UNL1        0.0840
      2 C         143.0294  142.1868  169.2202 C.3     1  UNL1        0.0095
      3 C         143.5633  141.3235  170.3246 C.3     1  UNL1        0.0005
      4 C         143.0540  139.9229  170.4944 C.3     1  UNL1        0.0005
      5 C         142.0110  139.3856  169.5598 C.3     1  UNL1        0.0082
      6 C         141.4771  140.2489  168.4555 C.3     1  UNL1        0.0705
      7 O         140.1752  143.2748  167.3757 O.2     1  UNL1       -0.2748
      8 C         141.4525  142.5129  167.1813 C.2     1  UNL1        0.2262
      9 N         142.1961  142.6143  165.8825 N.am    1  UNL1       -0.2802
     10 H         143.0345  142.1143  165.7549 H       1  UNL1        0.1550
     11 C         141.6623  143.4777  164.7781 C.ar    1  UNL1        0.1078
     12 C         142.3820  144.6212  164.1266 C.ar    1  UNL1        0.1383
     13 N         141.4795  145.1993  163.0772 N.ar    1  UNL1       -0.1607
     14 N         140.2020  144.4131  163.0801 N.ar    1  UNL1       -0.2093
     15 C         138.9505  144.5286  162.2613 C.ar    1  UNL1        0.1037
     16 C         137.8121  143.5801  162.4938 C.ar    1  UNL1        0.0414
     17 C         137.9251  142.5160  163.5450 C.ar    1  UNL1        0.1022
     18 N         139.1765  142.4005  164.3638 N.ar    1  UNL1       -0.2239
     19 C         140.3150  143.3491  164.1313 C.ar    1  UNL1        0.1789
     20 C         140.4341  139.7116  167.5209 C.2     1  UNL1        0.1731
     21 O         139.0232  139.5294  167.9966 O.2     1  UNL1       -0.2913
     22 C         140.8019  139.3565  166.1108 C.ar    1  UNL1        0.0347
     23 C         142.2364  139.1080  165.7497 C.ar    1  UNL1        0.0029
     24 C         142.6042  138.7529  164.3395 C.ar    1  UNL1        0.0016
     25 C         141.5374  138.6464  163.2903 C.ar    1  UNL1        0.0171
     26 C         140.1029  138.8949  163.6513 C.ar    1  UNL1        0.0016
     27 C         139.7352  139.2500  165.0616 C.ar    1  UNL1        0.0029
     28 C         141.9053  138.2913  161.8802 C.ar    1  UNL1        0.0754
     29 C         141.2146  138.7763  160.6401 C.ar    1  UNL1        0.0409
     30 C         141.9108  138.1737  159.4559 C.ar    1  UNL1        0.1214
     31 N         143.0317  137.3162  159.9642 N.ar    1  UNL1       -0.1711
     32 N         143.0282  137.3889  161.4624 N.ar    1  UNL1       -0.2757
     33 H         143.6533  136.9256  162.0657 H       1  UNL1        0.1889
@<TRIPOS>BOND
     1     7     8    2
     2     8     9   am
     3     9    11    1
     4    11    12   ar
     5    12    13   ar
     6    13    14   ar
     7    14    15   ar
     8    15    16   ar
     9    16    17   ar
    10    17    18   ar
    11    18    19   ar
    12     1     8    1
    13     1     2    1
    14     2     3    1
    15     3     4    1
    16     4     5    1
    17     5     6    1
    18     6    20    1
    19    20    21    2
    20    20    22    1
    21    22    23   ar
    22    23    24   ar
    23    24    25   ar
    24    25    28    1
    25    28    29   ar
    26    29    30   ar
    27    30    31   ar
    28    31    32   ar
    29    25    26   ar
    30    26    27   ar
    31    19    11   ar
    32     6     1    1
    33    27    22   ar
    34    19    14   ar
    35    32    28   ar
    36     9    10    1
    37    32    33    1
@<TRIPOS>MOLECULE
*****
 33 37 0 0 0
SMALL
GASTEIGER

@<TRIPOS>ATOM
      1 C         140.6275  141.0147  167.9747 C.3     1  UNL1        0.0840
      2 C         139.7975  140.4694  169.0988 C.3     1  UNL1        0.0095
      3 C         140.4543  140.0470  170.3796 C.3     1  UNL1        0.0005
      4 C         141.9410  140.1699  170.5360 C.3     1  UNL1        0.0005
      5 C         142.7710  140.7152  169.4119 C.3     1  UNL1        0.0082
      6 C         142.1142  141.1376  168.1311 C.3     1  UNL1        0.0705
      7 O         140.0366  142.8696  166.2542 O.2     1  UNL1       -0.2748
      8 C         139.9708  141.4371  166.6939 C.2     1  UNL1        0.2262
      9 N         139.2481  140.4268  165.8529 N.am    1  UNL1       -0.2802
     10 H         139.2049  139.4865  166.1414 H       1  UNL1        0.1550
     11 C         138.5914  140.8492  164.5721 C.ar    1  UNL1        0.1078
     12 C         137.7054  142.0455  164.3884 C.ar    1  UNL1        0.1383
     13 N         137.2718  142.0851  162.9530 N.ar    1  UNL1       -0.1607
     14 N         137.8898  140.9132  162.2496 N.ar    1  UNL1       -0.2093
     15 C         137.8153  140.4429  160.8272 C.ar    1  UNL1        0.1037
     16 C         138.5563  139.2088  160.4055 C.ar    1  UNL1        0.0414
     17 C         139.3718  138.4450  161.4062 C.ar    1  UNL1        0.1022
     18 N         139.4464  138.9152  162.8286 N.ar    1  UNL1       -0.2239
     19 C         138.7054  140.1493  163.2503 C.ar    1  UNL1        0.1789
     20 C         142.9442  141.6829  167.0069 C.2     1  UNL1        0.1731
     21 O         143.7670  142.9200  167.2137 O.2     1  UNL1       -0.2913
     22 C         142.9514  140.9911  165.6760 C.ar    1  UNL1        0.0347
     23 C         142.8507  141.7938  164.4129 C.ar    1  UNL1        0.0029
     24 C         142.8579  141.1019  163.0820 C.ar    1  UNL1        0.0016
     25 C         142.9659  139.6073  163.0142 C.ar    1  UNL1        0.0171
     26 C         143.0667  138.8046  164.2773 C.ar    1  UNL1        0.0016
     27 C         143.0594  139.4965  165.6082 C.ar    1  UNL1        0.0029
     28 C         142.9731  138.9155  161.6833 C.ar    1  UNL1        0.0754
     29 C         142.8295  139.5773  160.3449 C.ar    1  UNL1        0.0409
     30 C         142.8929  138.5113  159.2915 C.ar    1  UNL1        0.1214
     31 N         143.0756  137.1907  159.9789 N.ar    1  UNL1       -0.1711
     32 N         143.1252  137.4405  161.4571 N.ar    1  UNL1       -0.2757
     33 H         143.2378  136.7565  162.1562 H       1  UNL1        0.1889
@<TRIPOS>BOND
     1     7     8    2
     2     8     9   am
     3     9    11    1
     4    11    12   ar
     5    12    13   ar
     6    13    14   ar
     7    14    15   ar
     8    15    16   ar
     9    16    17   ar
    10    17    18   ar
    11    18    19   ar
    12     1     8    1
    13     1     2    1
    14     2     3    1
    15     3     4    1
    16     4     5    1
    17     5     6    1
    18     6    20    1
    19    20    21    2
    20    20    22    1
    21    22    23   ar
    22    23    24   ar
    23    24    25   ar
    24    25    28    1
    25    28    29   ar
    26    29    30   ar
    27    30    31   ar
    28    31    32   ar
    29    25    26   ar
    30    26    27   ar
    31    19    11   ar
    32     6     1    1
    33    27    22   ar
    34    19    14   ar
    35    32    28   ar
    36     9    10    1
    37    32    33    1
@<TRIPOS>MOLECULE
*****
 33 37 0 0 0
SMALL
GASTEIGER

@<TRIPOS>ATOM
      1 C         140.6207  141.3154  168.2720 C.3     1  UNL1        0.0840
      2 C         139.7325  140.7645  169.3479 C.3     1  UNL1        0.0095
      3 C         140.3111  139.8999  170.4285 C.3     1  UNL1        0.0005
      4 C         141.7780  139.5863  170.4331 C.3     1  UNL1        0.0005
      5 C         142.6661  140.1373  169.3572 C.3     1  UNL1        0.0082
      6 C         142.0875  141.0018  168.2766 C.3     1  UNL1        0.0705
      7 O         139.8784  143.6539  167.4171 O.2     1  UNL1       -0.2748
      8 C         140.0421  142.1800  167.1914 C.2     1  UNL1        0.2262
      9 N         139.6271  141.5707  165.8850 N.am    1  UNL1       -0.2802
     10 H         139.7345  140.6033  165.7368 H       1  UNL1        0.1550
     11 C         139.0484  142.4353  164.8044 C.ar    1  UNL1        0.1078
     12 C         137.6645  142.3280  164.2357 C.ar    1  UNL1        0.1383
     13 N         137.5130  143.3854  163.1826 N.ar    1  UNL1       -0.1607
     14 N         138.8032  144.1461  163.1004 N.ar    1  UNL1       -0.2093
     15 C         139.2365  145.2975  162.2423 C.ar    1  UNL1        0.1037
     16 C         140.6187  145.8618  162.3866 C.ar    1  UNL1        0.0414
     17 C         141.5677  145.2746  163.3889 C.ar    1  UNL1        0.1022
     18 N         141.1344  144.1231  164.2469 N.ar    1  UNL1       -0.2239
     19 C         139.7521  143.5588  164.1027 C.ar    1  UNL1        0.1789
     20 C         142.9757  141.5528  167.2007 C.2     1  UNL1        0.1731
     21 O         143.8308  142.7540  167.4761 O.2     1  UNL1       -0.2913
     22 C         143.0088  140.9025  165.8494 C.ar    1  UNL1        0.0347
     23 C         143.4790  141.6784  164.6549 C.ar    1  UNL1        0.0029
     24 C         143.5120  141.0281  163.3036 C.ar    1  UNL1        0.0016
     25 C         143.0748  139.6018  163.1468 C.ar    1  UNL1        0.0171
     26 C         142.6046  138.8258  164.3413 C.ar    1  UNL1        0.0016
     27 C         142.5716  139.4762  165.6926 C.ar    1  UNL1        0.0029
     28 C         143.1079  138.9515  161.7955 C.ar    1  UNL1        0.0754
     29 C         143.1772  139.6624  160.4765 C.ar    1  UNL1        0.0409
     30 C         143.1896  138.6264  159.3917 C.ar    1  UNL1        0.1214
     31 N         143.1279  137.2753  160.0403 N.ar    1  UNL1       -0.1711
     32 N         143.0774  137.4763  161.5260 N.ar    1  UNL1       -0.2757
     33 H         143.0321  136.7648  162.2049 H       1  UNL1        0.1889
@<TRIPOS>BOND
     1     7     8    2
     2     8     9   am
     3     9    11    1
     4    11    12   ar
     5    12    13   ar
     6    13    14   ar
     7    14    15   ar
     8    15    16   ar
     9    16    17   ar
    10    17    18   ar
    11    18    19   ar
    12     1     8    1
    13     1     2    1
    14     2     3    1
    15     3     4    1
    16     4     5    1
    17     5     6    1
    18     6    20    1
    19    20    21    2
    20    20    22    1
    21    22    23   ar
    22    23    24   ar
    23    24    25   ar
    24    25    28    1
    25    28    29   ar
    26    29    30   ar
    27    30    31   ar
    28    31    32   ar
    29    25    26   ar
    30    26    27   ar
    31    19    11   ar
    32     6     1    1
    33    27    22   ar
    34    19    14   ar
    35    32    28   ar
    36     9    10    1
    37    32    33    1
@<TRIPOS>MOLECULE
*****
 33 37 0 0 0
SMALL
GASTEIGER

@<TRIPOS>ATOM
      1 C         140.9412  142.1633  167.9771 C.3     1  UNL1        0.0840
      2 C         140.3982  143.2353  168.8748 C.3     1  UNL1        0.0095
      3 C         141.1970  143.7000  170.0563 C.3     1  UNL1        0.0005
      4 C         142.5389  143.0926  170.3400 C.3     1  UNL1        0.0005
      5 C         143.0819  142.0206  169.4423 C.3     1  UNL1        0.0082
      6 C         142.2830  141.5559  168.2608 C.3     1  UNL1        0.0705
      7 O         139.5125  140.3372  166.8047 O.2     1  UNL1       -0.2748
      8 C         140.1424  141.6986  166.7956 C.2     1  UNL1        0.2262
      9 N         139.9734  142.5952  165.6049 N.am    1  UNL1       -0.2802
     10 H         140.3868  143.4887  165.5989 H       1  UNL1        0.1550
     11 C         139.1746  142.1305  164.4235 C.ar    1  UNL1        0.1078
     12 C         137.9661  141.2432  164.4702 C.ar    1  UNL1        0.1383
     13 N         137.4886  141.0358  163.0634 N.ar    1  UNL1       -0.1607
     14 N         138.4020  141.7950  162.1472 N.ar    1  UNL1       -0.2093
     15 C         138.4195  141.9577  160.6562 C.ar    1  UNL1        0.1037
     16 C         139.4790  142.7968  160.0058 C.ar    1  UNL1        0.0414
     17 C         140.5210  143.4734  160.8463 C.ar    1  UNL1        0.1022
     18 N         140.5035  143.3108  162.3373 N.ar    1  UNL1       -0.2239
     19 C         139.4440  142.4716  162.9878 C.ar    1  UNL1        0.1789
     20 C         142.8261  140.4839  167.3631 C.2     1  UNL1        0.1731
     21 O         143.0726  139.1066  167.9038 O.2     1  UNL1       -0.2913
     22 C         143.1226  140.7891  165.9248 C.ar    1  UNL1        0.0347
     23 C         143.6844  142.1263  165.5421 C.ar    1  UNL1        0.0029
     24 C         143.9809  142.4315  164.1038 C.ar    1  UNL1        0.0016
     25 C         143.7156  141.3996  163.0480 C.ar    1  UNL1        0.0171
     26 C         143.1538  140.0624  163.4305 C.ar    1  UNL1        0.0016
     27 C         142.8573  139.7572  164.8689 C.ar    1  UNL1        0.0029
     28 C         144.0121  141.7048  161.6096 C.ar    1  UNL1        0.0754
     29 C         143.3053  141.1236  160.4211 C.ar    1  UNL1        0.0409
     30 C         143.9238  141.7045  159.1841 C.ar    1  UNL1        0.1214
     31 N         145.0129  142.6447  159.6082 N.ar    1  UNL1       -0.1711
     32 N         145.0675  142.6449  161.1072 N.ar    1  UNL1       -0.2757
     33 H         145.6872  143.1699  161.6636 H       1  UNL1        0.1889
@<TRIPOS>BOND
     1     7     8    2
     2     8     9   am
     3     9    11    1
     4    11    12   ar
     5    12    13   ar
     6    13    14   ar
     7    14    15   ar
     8    15    16   ar
     9    16    17   ar
    10    17    18   ar
    11    18    19   ar
    12     1     8    1
    13     1     2    1
    14     2     3    1
    15     3     4    1
    16     4     5    1
    17     5     6    1
    18     6    20    1
    19    20    21    2
    20    20    22    1
    21    22    23   ar
    22    23    24   ar
    23    24    25   ar
    24    25    28    1
    25    28    29   ar
    26    29    30   ar
    27    30    31   ar
    28    31    32   ar
    29    25    26   ar
    30    26    27   ar
    31    19    11   ar
    32     6     1    1
    33    27    22   ar
    34    19    14   ar
    35    32    28   ar
    36     9    10    1
    37    32    33    1
@<TRIPOS>MOLECULE
*****
 33 37 0 0 0
SMALL
GASTEIGER

@<TRIPOS>ATOM
      1 C         141.4990  141.7898  168.3712 C.3     1  UNL1        0.0840
      2 C         142.7773  142.2686  168.9931 C.3     1  UNL1        0.0095
      3 C         143.5076  141.3973  169.9717 C.3     1  UNL1        0.0005
      4 C         142.9596  140.0474  170.3283 C.3     1  UNL1        0.0005
      5 C         141.6813  139.5686  169.7063 C.3     1  UNL1        0.0082
      6 C         140.9510  140.4399  168.7278 C.3     1  UNL1        0.0705
      7 O         139.7420  143.6398  167.8806 O.2     1  UNL1       -0.2748
      8 C         140.7687  142.6611  167.3927 C.2     1  UNL1        0.2262
      9 N         141.0650  142.5536  165.9261 N.am    1  UNL1       -0.2802
     10 H         141.7388  141.9112  165.6058 H       1  UNL1        0.1550
     11 C         140.3347  143.4248  164.9475 C.ar    1  UNL1        0.1078
     12 C         138.9756  144.0275  165.1469 C.ar    1  UNL1        0.1383
     13 N         138.6362  144.8215  163.9204 N.ar    1  UNL1       -0.1607
     14 N         139.7855  144.7096  162.9630 N.ar    1  UNL1       -0.2093
     15 C         140.0118  145.2821  161.5952 C.ar    1  UNL1        0.1037
     16 C         141.2878  144.9915  160.8622 C.ar    1  UNL1        0.0414
     17 C         142.3375  144.1283  161.4970 C.ar    1  UNL1        0.1022
     18 N         142.1112  143.5557  162.8648 N.ar    1  UNL1       -0.2239
     19 C         140.8352  143.8464  163.5978 C.ar    1  UNL1        0.1789
     20 C         139.6727  139.9611  168.1059 C.2     1  UNL1        0.1731
     21 O         138.4809  139.6717  168.9695 O.2     1  UNL1       -0.2913
     22 C         139.5863  139.7718  166.6204 C.ar    1  UNL1        0.0347
     23 C         140.7259  139.1401  165.8772 C.ar    1  UNL1        0.0029
     24 C         140.6394  138.9509  164.3917 C.ar    1  UNL1        0.0016
     25 C         139.4133  139.3932  163.6494 C.ar    1  UNL1        0.0171
     26 C         138.2737  140.0249  164.3925 C.ar    1  UNL1        0.0016
     27 C         138.3602  140.2141  165.8781 C.ar    1  UNL1        0.0029
     28 C         139.3269  139.2039  162.1639 C.ar    1  UNL1        0.0754
     29 C         138.7809  140.1949  161.1791 C.ar    1  UNL1        0.0409
     30 C         138.8878  139.5938  159.8089 C.ar    1  UNL1        0.1214
     31 N         139.4999  138.2314  159.9469 N.ar    1  UNL1       -0.1711
     32 N         139.7712  137.9904  161.4024 N.ar    1  UNL1       -0.2757
     33 H         140.1709  137.1783  161.7898 H       1  UNL1        0.1889
@<TRIPOS>BOND
     1     7     8    2
     2     8     9   am
     3     9    11    1
     4    11    12   ar
     5    12    13   ar
     6    13    14   ar
     7    14    15   ar
     8    15    16   ar
     9    16    17   ar
    10    17    18   ar
    11    18    19   ar
    12     1     8    1
    13     1     2    1
    14     2     3    1
    15     3     4    1
    16     4     5    1
    17     5     6    1
    18     6    20    1
    19    20    21    2
    20    20    22    1
    21    22    23   ar
    22    23    24   ar
    23    24    25   ar
    24    25    28    1
    25    28    29   ar
    26    29    30   ar
    27    30    31   ar
    28    31    32   ar
    29    25    26   ar
    30    26    27   ar
    31    19    11   ar
    32     6     1    1
    33    27    22   ar
    34    19    14   ar
    35    32    28   ar
    36     9    10    1
    37    32    33    1
@<TRIPOS>MOLECULE
*****
 33 37 0 0 0
SMALL
GASTEIGER

@<TRIPOS>ATOM
      1 C         139.9102  143.1834  161.2460 C.3     1  UNL1        0.0840
      2 C         140.5679  144.3692  160.6047 C.3     1  UNL1        0.0095
      3 C         140.2317  145.7554  161.0687 C.3     1  UNL1        0.0005
      4 C         139.2378  145.9558  162.1741 C.3     1  UNL1        0.0005
      5 C         138.5801  144.7700  162.8155 C.3     1  UNL1        0.0082
      6 C         138.9164  143.3838  162.3515 C.3     1  UNL1        0.0705
      7 O         139.2933  141.0509  159.8962 O.2     1  UNL1       -0.2748
      8 C         140.2465  141.7972  160.7820 C.2     1  UNL1        0.2262
      9 N         141.5359  141.1571  161.2038 N.am    1  UNL1       -0.2802
     10 H         142.1615  141.6469  161.7852 H       1  UNL1        0.1550
     11 C         141.8722  139.7709  160.7398 C.ar    1  UNL1        0.1078
     12 C         141.9718  138.5508  161.6067 C.ar    1  UNL1        0.1383
     13 N         142.3290  137.3873  160.7300 N.ar    1  UNL1       -0.1607
     14 N         142.4501  137.8882  159.3213 N.ar    1  UNL1       -0.2093
     15 C         142.7810  137.1933  158.0339 C.ar    1  UNL1        0.1037
     16 C         142.8295  137.9715  156.7525 C.ar    1  UNL1        0.0414
     17 C         142.5471  139.4446  156.7586 C.ar    1  UNL1        0.1022
     18 N         142.2163  140.1396  158.0460 N.ar    1  UNL1       -0.2239
     19 C         142.1677  139.3614  159.3274 C.ar    1  UNL1        0.1789
     20 C         138.2587  142.1980  162.9928 C.2     1  UNL1        0.1731
     21 O         137.1234  141.5042  162.3001 O.2     1  UNL1       -0.2913
     22 C         138.7363  141.7060  164.3269 C.ar    1  UNL1        0.0347
     23 C         139.6999  142.5295  165.1290 C.ar    1  UNL1        0.0029
     24 C         140.1774  142.0375  166.4631 C.ar    1  UNL1        0.0016
     25 C         139.6914  140.7219  166.9952 C.ar    1  UNL1        0.0171
     26 C         138.7278  139.8984  166.1932 C.ar    1  UNL1        0.0016
     27 C         138.2502  140.3905  164.8590 C.ar    1  UNL1        0.0029
     28 C         140.1690  140.2300  168.3293 C.ar    1  UNL1        0.0754
     29 C         141.5875  139.9055  168.6931 C.ar    1  UNL1        0.0409
     30 C         141.6072  139.4511  170.1225 C.ar    1  UNL1        0.1214
     31 N         140.2007  139.4947  170.6421 N.ar    1  UNL1       -0.1711
     32 N         139.3119  139.9761  169.5338 N.ar    1  UNL1       -0.2757
     33 H         138.3371  140.1031  169.5876 H       1  UNL1        0.1889
@<TRIPOS>BOND
     1     7     8    2
     2     8     9   am
     3     9    11    1
     4    11    12   ar
     5    12    13   ar
     6    13    14   ar
     7    14    15   ar
     8    15    16   ar
     9    16    17   ar
    10    17    18   ar
    11    18    19   ar
    12     1     8    1
    13     1     2    1
    14     2     3    1
    15     3     4    1
    16     4     5    1
    17     5     6    1
    18     6    20    1
    19    20    21    2
    20    20    22    1
    21    22    23   ar
    22    23    24   ar
    23    24    25   ar
    24    25    28    1
    25    28    29   ar
    26    29    30   ar
    27    30    31   ar
    28    31    32   ar
    29    25    26   ar
    30    26    27   ar
    31    19    11   ar
    32     6     1    1
    33    27    22   ar
    34    19    14   ar
    35    32    28   ar
    36     9    10    1
    37    32    33    1
