@<TRIPOS>MOLECULE
*****
 29 30 0 0 0
SMALL
GASTEIGER

@<TRIPOS>ATOM
      1 C         139.5456  140.4589  166.9743 C.ar    1  UNL1        0.1575
      2 C         140.2066  141.7714  166.6737 C.ar    1  UNL1        0.0399
      3 C         140.0852  142.3766  165.3066 C.ar    1  UNL1        0.0222
      4 C         139.3028  141.6694  164.2401 C.ar    1  UNL1        0.0814
      5 N         138.6418  140.3569  164.5406 N.ar    1  UNL1       -0.2411
      6 C         138.7632  139.7516  165.9077 C.ar    1  UNL1        0.1586
      7 C         139.1813  142.2746  162.8730 C.ar    1  UNL1        0.0205
      8 C         138.4697  141.5290  161.7832 C.ar    1  UNL1        0.0222
      9 C         138.3483  142.1343  160.4161 C.ar    1  UNL1        0.0987
     10 N         138.9384  143.4851  160.1388 N.ar    1  UNL1       -0.2426
     11 C         139.6500  144.2307  161.2286 C.ar    1  UNL1        0.1250
     12 C         139.7714  143.6255  162.5957 C.ar    1  UNL1        0.0218
     13 C         140.2402  145.5816  160.9514 C.3     1  UNL1        0.3581
     14 F         139.6826  146.7974  161.6304 F       1  UNL1       -0.1915
     15 F         141.3879  145.7168  159.9951 F       1  UNL1       -0.1915
     16 C         138.1022  138.4390  166.2082 C.3     1  UNL1        0.3611
     17 F         138.4711  137.2161  165.4219 F       1  UNL1       -0.1914
     18 F         137.0723  138.3494  167.2951 F       1  UNL1       -0.1914
     19 O         139.6671  139.8536  168.3413 O.3     1  UNL1       -0.4727
     20 C         140.9325  140.0259  169.1281 C.3     1  UNL1        0.2193
     21 C         140.8681  140.3885  170.5822 C.3     1  UNL1        0.0798
     22 C         139.4278  139.9716  170.6224 C.3     1  UNL1        0.0193
     23 N         140.8037  140.7512  172.0363 N.3     1  UNL1       -0.3203
     24 H         141.7490  140.8842  172.3957 H       1  UNL1        0.1189
     25 H         140.3456  140.0010  172.5538 H       1  UNL1        0.1189
     26 C         142.3085  140.8054  170.5420 C.3     1  UNL1        0.0179
     27 C         144.1074  142.5432  169.8393 C.3     1  UNL1        0.0000
     28 C         142.6749  142.1970  170.1187 C.3     1  UNL1        0.0014
     29 C         141.6089  143.2424  169.9749 C.3     1  UNL1        0.0000
@<TRIPOS>BOND
     1    27    28    1
     2    28    29    1
     3    28    26    1
     4    26    21    1
     5    21    22    1
     6    21    23    1
     7    21    20    1
     8    20    19    1
     9    19     1    1
    10     1     2   ar
    11     2     3   ar
    12     3     4   ar
    13     4     7    1
    14     7     8   ar
    15     8     9   ar
    16     9    10   ar
    17    10    11   ar
    18    11    13    1
    19    13    14    1
    20    13    15    1
    21    11    12   ar
    22     4     5   ar
    23     5     6   ar
    24     6    16    1
    25    16    17    1
    26    16    18    1
    27     6     1   ar
    28    12     7   ar
    29    23    24    1
    30    23    25    1
@<TRIPOS>MOLECULE
*****
 29 30 0 0 0
SMALL
GASTEIGER

@<TRIPOS>ATOM
      1 C         140.7162  140.0850  163.0818 C.ar    1  UNL1        0.1575
      2 C         140.9400  141.4776  163.5922 C.ar    1  UNL1        0.0399
      3 C         140.7236  141.7882  165.0437 C.ar    1  UNL1        0.0222
      4 C         140.2834  140.7062  165.9847 C.ar    1  UNL1        0.0814
      5 N         140.0596  139.3136  165.4742 N.ar    1  UNL1       -0.2411
      6 C         140.2761  139.0030  164.0227 C.ar    1  UNL1        0.1586
      7 C         140.0670  141.0168  167.4361 C.ar    1  UNL1        0.0205
      8 C         139.2979  140.0624  168.3007 C.ar    1  UNL1        0.0222
      9 C         139.0815  140.3730  169.7522 C.ar    1  UNL1        0.0987
     10 N         139.6341  141.6380  170.3390 N.ar    1  UNL1       -0.2426
     11 C         140.4031  142.5924  169.4743 C.ar    1  UNL1        0.1250
     12 C         140.6196  142.2818  168.0229 C.ar    1  UNL1        0.0218
     13 C         140.9558  143.8574  170.0611 C.3     1  UNL1        0.3581
     14 F         142.3863  143.9141  170.5089 F       1  UNL1       -0.1915
     15 F         140.0780  145.0657  170.2001 F       1  UNL1       -0.1915
     16 C         140.0523  137.6104  163.5123 C.3     1  UNL1        0.3611
     17 F         138.7385  137.2420  162.8893 F       1  UNL1       -0.1914
     18 F         141.1423  136.5861  163.6249 F       1  UNL1       -0.1914
     19 O         140.9327  139.7744  161.6303 O.3     1  UNL1       -0.4727
     20 C         142.2784  140.0004  161.0075 C.3     1  UNL1        0.2193
     21 C         143.4029  139.0474  161.2852 C.3     1  UNL1        0.0798
     22 C         142.5673  137.9120  160.7726 C.3     1  UNL1        0.0193
     23 N         144.5275  138.0944  161.5629 N.3     1  UNL1       -0.3203
     24 H         145.3836  138.6205  161.7382 H       1  UNL1        0.1189
     25 H         144.6626  137.4838  160.7571 H       1  UNL1        0.1189
     26 C         144.2385  140.1827  161.7978 C.3     1  UNL1        0.0179
     27 C         143.9656  139.3079  164.2289 C.3     1  UNL1        0.0000
     28 C         144.6072  140.2465  163.2504 C.3     1  UNL1        0.0014
     29 C         145.6174  141.2489  163.7245 C.3     1  UNL1        0.0000
@<TRIPOS>BOND
     1    27    28    1
     2    28    29    1
     3    28    26    1
     4    26    21    1
     5    21    22    1
     6    21    23    1
     7    21    20    1
     8    20    19    1
     9    19     1    1
    10     1     2   ar
    11     2     3   ar
    12     3     4   ar
    13     4     7    1
    14     7     8   ar
    15     8     9   ar
    16     9    10   ar
    17    10    11   ar
    18    11    13    1
    19    13    14    1
    20    13    15    1
    21    11    12   ar
    22     4     5   ar
    23     5     6   ar
    24     6    16    1
    25    16    17    1
    26    16    18    1
    27     6     1   ar
    28    12     7   ar
    29    23    24    1
    30    23    25    1
@<TRIPOS>MOLECULE
*****
 29 30 0 0 0
SMALL
GASTEIGER

@<TRIPOS>ATOM
      1 C         139.7420  141.0659  166.7975 C.ar    1  UNL1        0.1575
      2 C         140.4493  142.3885  166.8127 C.ar    1  UNL1        0.0399
      3 C         140.4607  143.2470  165.5827 C.ar    1  UNL1        0.0222
      4 C         139.7649  142.7829  164.3376 C.ar    1  UNL1        0.0814
      5 N         139.0577  141.4602  164.3224 N.ar    1  UNL1       -0.2411
      6 C         139.0462  140.6017  165.5524 C.ar    1  UNL1        0.1586
      7 C         139.7764  143.6414  163.1076 C.ar    1  UNL1        0.0205
      8 C         139.9043  145.1306  163.2336 C.ar    1  UNL1        0.0222
      9 C         139.9158  145.9891  162.0036 C.ar    1  UNL1        0.0987
     10 N         139.7994  145.3584  160.6476 N.ar    1  UNL1       -0.2426
     11 C         139.6715  143.8692  160.5217 C.ar    1  UNL1        0.1250
     12 C         139.6601  143.0107  161.7516 C.ar    1  UNL1        0.0218
     13 C         139.5552  143.2384  159.1657 C.3     1  UNL1        0.3581
     14 F         140.3115  143.8120  158.0043 F       1  UNL1       -0.1915
     15 F         138.6825  142.0341  158.9711 F       1  UNL1       -0.1915
     16 C         138.3389  139.2790  165.5372 C.3     1  UNL1        0.3611
     17 F         137.3891  138.9237  166.6425 F       1  UNL1       -0.1914
     18 F         138.5813  138.3116  164.4168 F       1  UNL1       -0.1914
     19 O         139.7305  140.2074  168.0275 O.3     1  UNL1       -0.4727
     20 C         140.9430  140.1425  168.9082 C.3     1  UNL1        0.2193
     21 C         140.8234  140.4455  170.3724 C.3     1  UNL1        0.0798
     22 C         139.3715  140.0709  170.3314 C.3     1  UNL1        0.0193
     23 N         140.7039  140.7484  171.8367 N.3     1  UNL1       -0.3203
     24 H         141.6354  140.8376  172.2426 H       1  UNL1        0.1189
     25 H         140.2020  139.9913  172.3006 H       1  UNL1        0.1189
     26 C         142.2753  140.8201  170.4135 C.3     1  UNL1        0.0179
     27 C         144.1414  142.5260  169.8157 C.3     1  UNL1        0.0000
     28 C         142.6978  142.2216  170.0864 C.3     1  UNL1        0.0014
     29 C         141.6766  143.3190  170.0300 C.3     1  UNL1        0.0000
@<TRIPOS>BOND
     1    27    28    1
     2    28    29    1
     3    28    26    1
     4    26    21    1
     5    21    22    1
     6    21    23    1
     7    21    20    1
     8    20    19    1
     9    19     1    1
    10     1     2   ar
    11     2     3   ar
    12     3     4   ar
    13     4     7    1
    14     7     8   ar
    15     8     9   ar
    16     9    10   ar
    17    10    11   ar
    18    11    13    1
    19    13    14    1
    20    13    15    1
    21    11    12   ar
    22     4     5   ar
    23     5     6   ar
    24     6    16    1
    25    16    17    1
    26    16    18    1
    27     6     1   ar
    28    12     7   ar
    29    23    24    1
    30    23    25    1
@<TRIPOS>MOLECULE
*****
 29 30 0 0 0
SMALL
GASTEIGER

@<TRIPOS>ATOM
      1 C         140.6273  140.8003  166.8146 C.ar    1  UNL1        0.1575
      2 C         141.5881  141.9522  166.8129 C.ar    1  UNL1        0.0399
      3 C         141.9247  142.6463  165.5265 C.ar    1  UNL1        0.0222
      4 C         141.3004  142.1886  164.2417 C.ar    1  UNL1        0.0814
      5 N         140.3397  141.0367  164.2433 N.ar    1  UNL1       -0.2411
      6 C         140.0031  140.3426  165.5298 C.ar    1  UNL1        0.1586
      7 C         141.6370  142.8827  162.9552 C.ar    1  UNL1        0.0205
      8 C         142.8623  142.4852  162.1868 C.ar    1  UNL1        0.0222
      9 C         143.1989  143.1793  160.9004 C.ar    1  UNL1        0.0987
     10 N         142.3101  144.2709  160.3824 N.ar    1  UNL1       -0.2426
     11 C         141.0848  144.6684  161.1508 C.ar    1  UNL1        0.1250
     12 C         140.7482  143.9743  162.4372 C.ar    1  UNL1        0.0218
     13 C         140.1959  145.7601  160.6328 C.3     1  UNL1        0.3581
     14 F         139.5486  146.7174  161.5891 F       1  UNL1       -0.1915
     15 F         139.9543  145.8944  159.1585 F       1  UNL1       -0.1915
     16 C         139.0423  139.1907  165.5314 C.3     1  UNL1        0.3611
     17 F         137.6310  139.3918  165.9982 F       1  UNL1       -0.1914
     18 F         139.4927  137.8376  165.0662 F       1  UNL1       -0.1914
     19 O         140.2908  140.1062  168.1010 O.3     1  UNL1       -0.4727
     20 C         141.3210  139.9963  169.1857 C.3     1  UNL1        0.2193
     21 C         140.9811  140.4083  170.5874 C.3     1  UNL1        0.0798
     22 C         139.5856  139.8907  170.4012 C.3     1  UNL1        0.0193
     23 N         140.6413  140.8203  171.9891 N.3     1  UNL1       -0.3203
     24 H         141.4990  141.0345  172.4979 H       1  UNL1        0.1189
     25 H         140.1492  140.0593  172.4573 H       1  UNL1        0.1189
     26 C         142.3766  140.9258  170.7736 C.3     1  UNL1        0.0179
     27 C         141.7364  143.3658  170.1519 C.3     1  UNL1        0.0000
     28 C         142.7575  142.2695  170.2265 C.3     1  UNL1        0.0014
     29 C         144.1594  142.5170  169.7538 C.3     1  UNL1        0.0000
@<TRIPOS>BOND
     1    27    28    1
     2    28    29    1
     3    28    26    1
     4    26    21    1
     5    21    22    1
     6    21    23    1
     7    21    20    1
     8    20    19    1
     9    19     1    1
    10     1     2   ar
    11     2     3   ar
    12     3     4   ar
    13     4     7    1
    14     7     8   ar
    15     8     9   ar
    16     9    10   ar
    17    10    11   ar
    18    11    13    1
    19    13    14    1
    20    13    15    1
    21    11    12   ar
    22     4     5   ar
    23     5     6   ar
    24     6    16    1
    25    16    17    1
    26    16    18    1
    27     6     1   ar
    28    12     7   ar
    29    23    24    1
    30    23    25    1
@<TRIPOS>MOLECULE
*****
 29 30 0 0 0
SMALL
GASTEIGER

@<TRIPOS>ATOM
      1 C         141.0467  140.3154  166.6030 C.ar    1  UNL1        0.1575
      2 C         140.2888  141.6097  166.5848 C.ar    1  UNL1        0.0399
      3 C         139.8661  142.2130  165.2781 C.ar    1  UNL1        0.0222
      4 C         140.2012  141.5220  163.9897 C.ar    1  UNL1        0.0814
      5 N         140.9591  140.2277  164.0079 N.ar    1  UNL1       -0.2411
      6 C         141.3818  139.6244  165.3145 C.ar    1  UNL1        0.1586
      7 C         139.7785  142.1253  162.6830 C.ar    1  UNL1        0.0205
      8 C         138.9426  141.3295  161.7250 C.ar    1  UNL1        0.0222
      9 C         138.5199  141.9328  160.4184 C.ar    1  UNL1        0.0987
     10 N         138.9331  143.3319  160.0697 N.ar    1  UNL1       -0.2426
     11 C         139.7690  144.1277  161.0277 C.ar    1  UNL1        0.1250
     12 C         140.1917  143.5244  162.3344 C.ar    1  UNL1        0.0218
     13 C         140.1823  145.5270  160.6791 C.3     1  UNL1        0.3581
     14 F         141.0127  145.7810  159.4561 F       1  UNL1       -0.1915
     15 F         139.7651  146.6721  161.5535 F       1  UNL1       -0.1915
     16 C         142.1397  138.3300  165.3327 C.3     1  UNL1        0.3611
     17 F         143.5340  138.2850  165.8841 F       1  UNL1       -0.1914
     18 F         141.5034  137.0808  164.7995 F       1  UNL1       -0.1914
     19 O         141.4694  139.7121  167.9096 O.3     1  UNL1       -0.4727
     20 C         142.5023  140.3984  168.7533 C.3     1  UNL1        0.2193
     21 C         142.3552  140.4243  170.2459 C.3     1  UNL1        0.0798
     22 C         142.5992  138.9451  170.2956 C.3     1  UNL1        0.0193
     23 N         142.2080  140.4501  171.7384 N.3     1  UNL1       -0.3203
     24 H         142.2433  141.4151  172.0669 H       1  UNL1        0.1189
     25 H         142.9670  139.9181  172.1642 H       1  UNL1        0.1189
     26 C         142.1111  141.9035  170.1962 C.3     1  UNL1        0.0179
     27 C         140.4846  143.8838  169.7691 C.3     1  UNL1        0.0000
     28 C         140.7135  142.4286  170.0518 C.3     1  UNL1        0.0014
     29 C         139.5448  141.4985  170.1900 C.3     1  UNL1        0.0000
@<TRIPOS>BOND
     1    27    28    1
     2    28    29    1
     3    28    26    1
     4    26    21    1
     5    21    22    1
     6    21    23    1
     7    21    20    1
     8    20    19    1
     9    19     1    1
    10     1     2   ar
    11     2     3   ar
    12     3     4   ar
    13     4     7    1
    14     7     8   ar
    15     8     9   ar
    16     9    10   ar
    17    10    11   ar
    18    11    13    1
    19    13    14    1
    20    13    15    1
    21    11    12   ar
    22     4     5   ar
    23     5     6   ar
    24     6    16    1
    25    16    17    1
    26    16    18    1
    27     6     1   ar
    28    12     7   ar
    29    23    24    1
    30    23    25    1
@<TRIPOS>MOLECULE
*****
 29 30 0 0 0
SMALL
GASTEIGER

@<TRIPOS>ATOM
      1 C         141.0599  142.1472  163.0311 C.ar    1  UNL1        0.1575
      2 C         142.0442  143.0255  163.7449 C.ar    1  UNL1        0.0399
      3 C         142.4771  142.6869  165.1407 C.ar    1  UNL1        0.0222
      4 C         141.9255  141.4701  165.8226 C.ar    1  UNL1        0.0814
      5 N         140.9411  140.5918  165.1087 N.ar    1  UNL1       -0.2411
      6 C         140.5083  140.9304  163.7130 C.ar    1  UNL1        0.1586
      7 C         142.3583  141.1315  167.2183 C.ar    1  UNL1        0.0205
      8 C         142.1511  139.7452  167.7523 C.ar    1  UNL1        0.0222
      9 C         142.5839  139.4066  169.1480 C.ar    1  UNL1        0.0987
     10 N         143.2240  140.4543  170.0097 N.ar    1  UNL1       -0.2426
     11 C         143.4312  141.8406  169.4757 C.ar    1  UNL1        0.1250
     12 C         142.9984  142.1792  168.0800 C.ar    1  UNL1        0.0218
     13 C         144.0713  142.8884  170.3374 C.3     1  UNL1        0.3581
     14 F         145.5661  142.9800  170.4212 F       1  UNL1       -0.1915
     15 F         143.2165  143.8446  171.1153 F       1  UNL1       -0.1915
     16 C         139.5239  140.0520  162.9992 C.3     1  UNL1        0.3611
     17 F         139.8694  139.4728  161.6594 F       1  UNL1       -0.1914
     18 F         138.1940  139.7529  163.6252 F       1  UNL1       -0.1914
     19 O         140.6270  142.4858  161.6354 O.3     1  UNL1       -0.4727
     20 C         139.4801  143.4266  161.4133 C.3     1  UNL1        0.2193
     21 C         139.6088  144.8704  161.7990 C.3     1  UNL1        0.0798
     22 C         140.8748  144.9708  161.0007 C.3     1  UNL1        0.0193
     23 N         139.7376  146.3143  162.1846 N.3     1  UNL1       -0.3203
     24 H         138.8586  146.6380  162.5883 H       1  UNL1        0.1189
     25 H         139.9565  146.8690  161.3572 H       1  UNL1        0.1189
     26 C         138.3429  144.7701  162.5972 C.3     1  UNL1        0.0179
     27 C         137.5776  142.9537  164.2899 C.3     1  UNL1        0.0000
     28 C         138.3718  144.1877  163.9792 C.3     1  UNL1        0.0014
     29 C         139.1950  144.8393  165.0506 C.3     1  UNL1        0.0000
@<TRIPOS>BOND
     1    27    28    1
     2    28    29    1
     3    28    26    1
     4    26    21    1
     5    21    22    1
     6    21    23    1
     7    21    20    1
     8    20    19    1
     9    19     1    1
    10     1     2   ar
    11     2     3   ar
    12     3     4   ar
    13     4     7    1
    14     7     8   ar
    15     8     9   ar
    16     9    10   ar
    17    10    11   ar
    18    11    13    1
    19    13    14    1
    20    13    15    1
    21    11    12   ar
    22     4     5   ar
    23     5     6   ar
    24     6    16    1
    25    16    17    1
    26    16    18    1
    27     6     1   ar
    28    12     7   ar
    29    23    24    1
    30    23    25    1
@<TRIPOS>MOLECULE
*****
 29 30 0 0 0
SMALL
GASTEIGER

@<TRIPOS>ATOM
      1 C         140.2405  141.4972  162.8003 C.ar    1  UNL1        0.1575
      2 C         141.6106  141.1010  163.2647 C.ar    1  UNL1        0.0399
      3 C         142.0325  141.3766  164.6776 C.ar    1  UNL1        0.0222
      4 C         141.0843  142.0485  165.6259 C.ar    1  UNL1        0.0814
      5 N         139.7142  142.4447  165.1615 N.ar    1  UNL1       -0.2411
      6 C         139.2923  142.1691  163.7487 C.ar    1  UNL1        0.1586
      7 C         141.5062  142.3241  167.0387 C.ar    1  UNL1        0.0205
      8 C         142.8754  141.9255  167.5039 C.ar    1  UNL1        0.0222
      9 C         143.2973  142.2011  168.9167 C.ar    1  UNL1        0.0987
     10 N         142.3500  142.8753  169.8644 N.ar    1  UNL1       -0.2426
     11 C         140.9808  143.2739  169.3992 C.ar    1  UNL1        0.1250
     12 C         140.5589  142.9983  167.9864 C.ar    1  UNL1        0.0218
     13 C         140.0335  143.9481  170.3469 C.3     1  UNL1        0.3581
     14 F         139.0755  143.1284  171.1595 F       1  UNL1       -0.1915
     15 F         140.0441  145.4419  170.4818 F       1  UNL1       -0.1915
     16 C         137.9221  142.5654  163.2842 C.3     1  UNL1        0.3611
     17 F         136.8062  141.5631  163.2990 F       1  UNL1       -0.1914
     18 F         137.6679  143.9638  162.8051 F       1  UNL1       -0.1914
     19 O         139.8187  141.2216  161.3875 O.3     1  UNL1       -0.4727
     20 C         139.7059  139.8073  160.9008 C.3     1  UNL1        0.2193
     21 C         138.4642  139.0141  161.1819 C.3     1  UNL1        0.0798
     22 C         137.6281  140.1206  160.6105 C.3     1  UNL1        0.0193
     23 N         137.2225  138.2209  161.4629 N.3     1  UNL1       -0.3203
     24 H         137.4765  137.2570  161.6792 H       1  UNL1        0.1189
     25 H         136.6160  138.2369  160.6430 H       1  UNL1        0.1189
     26 C         139.3004  137.9076  161.7532 C.3     1  UNL1        0.0179
     27 C         138.7435  138.5334  164.2125 C.3     1  UNL1        0.0000
     28 C         139.6731  137.9227  163.2061 C.3     1  UNL1        0.0014
     29 C         140.9754  137.3271  163.6526 C.3     1  UNL1        0.0000
@<TRIPOS>BOND
     1    27    28    1
     2    28    29    1
     3    28    26    1
     4    26    21    1
     5    21    22    1
     6    21    23    1
     7    21    20    1
     8    20    19    1
     9    19     1    1
    10     1     2   ar
    11     2     3   ar
    12     3     4   ar
    13     4     7    1
    14     7     8   ar
    15     8     9   ar
    16     9    10   ar
    17    10    11   ar
    18    11    13    1
    19    13    14    1
    20    13    15    1
    21    11    12   ar
    22     4     5   ar
    23     5     6   ar
    24     6    16    1
    25    16    17    1
    26    16    18    1
    27     6     1   ar
    28    12     7   ar
    29    23    24    1
    30    23    25    1
@<TRIPOS>MOLECULE
*****
 29 30 0 0 0
SMALL
GASTEIGER

@<TRIPOS>ATOM
      1 C         140.3407  141.2654  163.2113 C.ar    1  UNL1        0.1575
      2 C         141.7266  141.1328  163.7695 C.ar    1  UNL1        0.0399
      3 C         142.0072  141.5411  165.1853 C.ar    1  UNL1        0.0222
      4 C         140.9019  142.0821  166.0429 C.ar    1  UNL1        0.0814
      5 N         139.5160  142.2147  165.4847 N.ar    1  UNL1       -0.2411
      6 C         139.2354  141.8064  164.0689 C.ar    1  UNL1        0.1586
      7 C         141.1824  142.4905  167.4587 C.ar    1  UNL1        0.0205
      8 C         140.1801  143.3106  168.2154 C.ar    1  UNL1        0.0222
      9 C         140.4606  143.7190  169.6312 C.ar    1  UNL1        0.0987
     10 N         141.7436  143.3072  170.2904 N.ar    1  UNL1       -0.2426
     11 C         142.7459  142.4871  169.5337 C.ar    1  UNL1        0.1250
     12 C         142.4653  142.0787  168.1179 C.ar    1  UNL1        0.0218
     13 C         144.0289  142.0753  170.1928 C.3     1  UNL1        0.3581
     14 F         144.1645  140.7001  170.7765 F       1  UNL1       -0.1915
     15 F         145.1762  143.0385  170.2682 F       1  UNL1       -0.1915
     16 C         137.8494  141.9390  163.5107 C.3     1  UNL1        0.3611
     17 F         137.2761  143.2988  163.2418 F       1  UNL1       -0.1914
     18 F         137.0367  140.7119  163.2215 F       1  UNL1       -0.1914
     19 O         140.0601  140.8570  161.7955 O.3     1  UNL1       -0.4727
     20 C         139.6733  139.4412  161.4859 C.3     1  UNL1        0.2193
     21 C         140.6903  138.3443  161.5973 C.3     1  UNL1        0.0798
     22 C         141.5837  139.0753  160.6394 C.3     1  UNL1        0.0193
     23 N         141.7074  137.2474  161.7088 N.3     1  UNL1       -0.3203
     24 H         141.4779  136.6505  162.5034 H       1  UNL1        0.1189
     25 H         142.6327  137.6543  161.8452 H       1  UNL1        0.1189
     26 C         139.7970  137.6133  162.5553 C.3     1  UNL1        0.0179
     27 C         138.8088  138.2493  164.8723 C.3     1  UNL1        0.0000
     28 C         139.9688  137.8014  164.0334 C.3     1  UNL1        0.0014
     29 C         141.3007  137.5416  164.6728 C.3     1  UNL1        0.0000
@<TRIPOS>BOND
     1    27    28    1
     2    28    29    1
     3    28    26    1
     4    26    21    1
     5    21    22    1
     6    21    23    1
     7    21    20    1
     8    20    19    1
     9    19     1    1
    10     1     2   ar
    11     2     3   ar
    12     3     4   ar
    13     4     7    1
    14     7     8   ar
    15     8     9   ar
    16     9    10   ar
    17    10    11   ar
    18    11    13    1
    19    13    14    1
    20    13    15    1
    21    11    12   ar
    22     4     5   ar
    23     5     6   ar
    24     6    16    1
    25    16    17    1
    26    16    18    1
    27     6     1   ar
    28    12     7   ar
    29    23    24    1
    30    23    25    1
@<TRIPOS>MOLECULE
*****
 29 30 0 0 0
SMALL
GASTEIGER

@<TRIPOS>ATOM
      1 C         141.0876  141.9742  163.4818 C.ar    1  UNL1        0.1575
      2 C         140.0912  140.9088  163.8311 C.ar    1  UNL1        0.0399
      3 C         139.9819  140.4185  165.2445 C.ar    1  UNL1        0.0222
      4 C         140.8691  140.9935  166.3085 C.ar    1  UNL1        0.0814
      5 N         141.8655  142.0589  165.9592 N.ar    1  UNL1       -0.2411
      6 C         141.9748  142.5492  164.5458 C.ar    1  UNL1        0.1586
      7 C         140.7598  140.5032  167.7219 C.ar    1  UNL1        0.0205
      8 C         139.4775  140.6793  168.4799 C.ar    1  UNL1        0.0222
      9 C         139.3682  140.1890  169.8932 C.ar    1  UNL1        0.0987
     10 N         140.5412  139.5225  170.5487 N.ar    1  UNL1       -0.2426
     11 C         141.8236  139.3463  169.7907 C.ar    1  UNL1        0.1250
     12 C         141.9329  139.8366  168.3773 C.ar    1  UNL1        0.0218
     13 C         142.9967  138.6797  170.4461 C.3     1  UNL1        0.3581
     14 F         143.3025  137.2410  170.1521 F       1  UNL1       -0.1915
     15 F         143.8640  139.4520  171.3955 F       1  UNL1       -0.1915
     16 C         142.9713  143.6146  164.1965 C.3     1  UNL1        0.3611
     17 F         142.6633  145.0537  164.4867 F       1  UNL1       -0.1914
     18 F         144.2757  143.2409  163.5571 F       1  UNL1       -0.1914
     19 O         141.1969  142.4645  162.0684 O.3     1  UNL1       -0.4727
     20 C         140.1488  143.3803  161.5091 C.3     1  UNL1        0.2193
     21 C         140.2184  144.8539  161.7802 C.3     1  UNL1        0.0798
     22 C         141.6299  144.8806  161.2733 C.3     1  UNL1        0.0193
     23 N         140.2880  146.3276  162.0513 N.3     1  UNL1       -0.3203
     24 H         139.3485  146.6868  162.2211 H       1  UNL1        0.1189
     25 H         140.6931  146.8029  161.2449 H       1  UNL1        0.1189
     26 C         138.8069  144.8273  162.2872 C.3     1  UNL1        0.0179
     27 C         139.2858  144.8961  164.8398 C.3     1  UNL1        0.0000
     28 C         138.5181  144.3414  163.6766 C.3     1  UNL1        0.0014
     29 C         137.4616  143.3009  163.9028 C.3     1  UNL1        0.0000
@<TRIPOS>BOND
     1    27    28    1
     2    28    29    1
     3    28    26    1
     4    26    21    1
     5    21    22    1
     6    21    23    1
     7    21    20    1
     8    20    19    1
     9    19     1    1
    10     1     2   ar
    11     2     3   ar
    12     3     4   ar
    13     4     7    1
    14     7     8   ar
    15     8     9   ar
    16     9    10   ar
    17    10    11   ar
    18    11    13    1
    19    13    14    1
    20    13    15    1
    21    11    12   ar
    22     4     5   ar
    23     5     6   ar
    24     6    16    1
    25    16    17    1
    26    16    18    1
    27     6     1   ar
    28    12     7   ar
    29    23    24    1
    30    23    25    1
