@<TRIPOS>MOLECULE
*****
 43 47 0 0 0
SMALL
GASTEIGER

@<TRIPOS>ATOM
      1 C         143.4389  142.1812  162.2948 C.2     1  UNL1        0.2435
      2 O         144.4128  141.0421  162.2326 O.2     1  UNL1       -0.2731
      3 N         142.8374  142.7236  161.0322 N.am    1  UNL1       -0.2781
      4 C         143.2100  142.1269  159.7074 C.3     1  UNL1        0.0956
      5 C         142.6086  142.6694  158.4449 C.3     1  UNL1        0.0490
      6 C         141.6346  143.8084  158.5071 C.3     1  UNL1        0.1377
      7 C         141.2620  144.4051  159.8319 C.3     1  UNL1        0.0490
      8 C         141.8635  143.8627  161.0945 C.3     1  UNL1        0.0956
      9 C         140.6521  144.9380  158.4129 C.2     1  UNL1        0.2491
     10 O         140.0986  145.7235  159.5647 O.2     1  UNL1       -0.2727
     11 N         140.3204  145.1442  156.9646 N.am    1  UNL1       -0.2108
     12 C         139.3769  146.1721  156.4139 C.3     1  UNL1        0.1245
     13 C         141.0978  144.1420  156.1637 C.2     1  UNL1        0.3168
     14 O         141.0682  143.9918  154.6717 O.2     1  UNL1       -0.2516
     15 N         141.9100  143.3165  157.1170 N.am    1  UNL1       -0.2411
     16 C         142.8352  142.1958  156.7456 C.2     1  UNL1        0.0376
     17 C         144.2765  142.4817  156.4442 C.2     1  UNL1        0.0125
     18 C         145.2016  141.3609  156.0727 C.2     1  UNL1        0.0216
     19 C         144.6856  139.9542  156.0028 C.2     1  UNL1        0.1008
     20 N         145.3555  138.6548  155.6673 N.2     1  UNL1       -0.1482
     21 N         144.3283  137.5658  155.7614 N.2     1  UNL1       -0.1467
     22 C         143.0235  138.1922  156.1551 C.2     1  UNL1        0.1198
     23 C         143.2443  139.6683  156.3042 C.2     1  UNL1        0.0238
     24 C         142.3191  140.7891  156.6757 C.3     1  UNL1        0.0710
     25 C         143.0663  142.7779  163.6196 C.3     1  UNL1        0.1489
     26 N         141.8937  142.2369  164.3828 N.am    1  UNL1       -0.2947
     27 C         142.0665  141.0457  165.2779 C.2     1  UNL1        0.2483
     28 O         143.4118  140.3955  165.4099 O.2     1  UNL1       -0.2701
     29 H         141.0107  142.6636  164.2961 H       1  UNL1        0.1501
     30 C         140.8939  140.5046  166.0410 C.ar    1  UNL1        0.0807
     31 C         140.9242  140.4747  167.5405 C.ar    1  UNL1        0.0106
     32 C         139.7516  139.9337  168.3036 C.ar    1  UNL1        0.0717
     33 C         138.5488  139.4226  167.5673 C.ar    1  UNL1        0.0062
     34 C         138.5186  139.4525  166.0679 C.ar    1  UNL1        0.0297
     35 C         139.6912  139.9936  165.3048 C.ar    1  UNL1        0.1444
     36 F         139.6610  140.0235  163.8054 F       1  UNL1       -0.2040
     37 C         139.7818  139.9038  169.8030 C.3     1  UNL1        0.4186
     38 F         139.8119  139.8738  171.3024 F       1  UNL1       -0.1659
     39 F         138.4383  140.5697  169.8433 F       1  UNL1       -0.1659
     40 F         141.1252  139.2378  169.7626 F       1  UNL1       -0.1659
     41 C         143.7723  145.2775  163.5598 C.3     1  UNL1        0.0022
     42 C         143.8664  143.9157  164.1814 C.3     1  UNL1        0.0269
     43 C         144.7604  143.6915  165.3648 C.3     1  UNL1        0.0022
@<TRIPOS>BOND
     1    41    42    1
     2    42    43    1
     3    42    25    1
     4    25    26    1
     5    26    27   am
     6    27    28    2
     7    27    30    1
     8    30    31   ar
     9    31    32   ar
    10    32    37    1
    11    37    38    1
    12    37    39    1
    13    37    40    1
    14    32    33   ar
    15    33    34   ar
    16    34    35   ar
    17    35    36    1
    18    25     1    1
    19     1     2    2
    20     1     3   am
    21     3     4    1
    22     4     5    1
    23     5     6    1
    24     6     7    1
    25     7     8    1
    26     6     9    1
    27     9    10    2
    28     9    11   am
    29    11    12    1
    30    11    13   am
    31    13    14    2
    32    13    15   am
    33    15    16    1
    34    16    17    2
    35    17    18    1
    36    18    19    2
    37    19    20    1
    38    20    21    2
    39    21    22    1
    40    22    23    2
    41    23    24    1
    42    35    30   ar
    43     8     3    1
    44    24    16    1
    45    15     6    1
    46    23    19    1
    47    26    29    1
@<TRIPOS>MOLECULE
*****
 43 47 0 0 0
SMALL
GASTEIGER

@<TRIPOS>ATOM
      1 C         143.7086  140.5207  162.0891 C.2     1  UNL1        0.2435
      2 O         144.2802  139.1427  161.9333 O.2     1  UNL1       -0.2731
      3 N         143.3742  141.3356  160.8749 N.am    1  UNL1       -0.2781
      4 C         143.6114  140.7725  159.5050 C.3     1  UNL1        0.0956
      5 C         143.2770  141.5875  158.2910 C.3     1  UNL1        0.0490
      6 C         142.7053  142.9655  158.4468 C.3     1  UNL1        0.1377
      7 C         142.4681  143.5286  159.8166 C.3     1  UNL1        0.0490
      8 C         142.8025  142.7137  161.0307 C.3     1  UNL1        0.0956
      9 C         142.1310  144.3512  158.4457 C.2     1  UNL1        0.2491
     10 O         141.7902  145.1652  159.6587 O.2     1  UNL1       -0.2727
     11 N         141.9572  144.7799  157.0188 N.am    1  UNL1       -0.2108
     12 C         141.4122  146.0979  156.5543 C.3     1  UNL1        0.1245
     13 C         142.4242  143.6592  156.1379 C.2     1  UNL1        0.3168
     14 O         142.4282  143.6597  154.6380 O.2     1  UNL1       -0.2516
     15 N         142.8866  142.5378  157.0204 N.am    1  UNL1       -0.2411
     16 C         143.4340  141.2201  156.5579 C.2     1  UNL1        0.0376
     17 C         144.8753  141.1053  156.1586 C.2     1  UNL1        0.0125
     18 C         145.4227  139.7876  155.6961 C.2     1  UNL1        0.0216
     19 C         144.5289  138.5846  155.6329 C.2     1  UNL1        0.1008
     20 N         144.7840  137.1650  155.2209 N.2     1  UNL1       -0.1482
     21 N         143.5005  136.4026  155.3656 N.2     1  UNL1       -0.1467
     22 C         142.4520  137.3508  155.8670 C.2     1  UNL1        0.1198
     23 C         143.0876  138.6994  156.0323 C.2     1  UNL1        0.0238
     24 C         142.5402  140.0172  156.4947 C.3     1  UNL1        0.0710
     25 C         143.4713  141.0838  163.4589 C.3     1  UNL1        0.1489
     26 N         142.1766  140.8142  164.1668 N.am    1  UNL1       -0.2947
     27 C         142.0037  139.5524  164.9593 C.2     1  UNL1        0.2483
     28 O         143.1255  138.5602  165.0438 O.2     1  UNL1       -0.2701
     29 H         141.4404  141.4655  164.1113 H       1  UNL1        0.1501
     30 C         140.7090  139.2828  165.6671 C.ar    1  UNL1        0.0807
     31 C         140.4464  139.8973  167.0101 C.ar    1  UNL1        0.0106
     32 C         139.1517  139.6277  167.7180 C.ar    1  UNL1        0.0717
     33 C         138.1196  138.7436  167.0829 C.ar    1  UNL1        0.0062
     34 C         138.3823  138.1291  165.7400 C.ar    1  UNL1        0.0297
     35 C         139.6770  138.3987  165.0321 C.ar    1  UNL1        0.1444
     36 F         139.9397  137.7843  163.6892 F       1  UNL1       -0.2040
     37 C         138.8890  140.2422  169.0608 C.3     1  UNL1        0.4186
     38 F         138.6264  140.8567  170.4038 F       1  UNL1       -0.1659
     39 F         140.1035  141.1081  168.9022 F       1  UNL1       -0.1659
     40 F         137.6746  139.3763  169.2195 F       1  UNL1       -0.1659
     41 C         144.1455  142.9288  165.1594 C.3     1  UNL1        0.0022
     42 C         144.5289  141.9166  164.1210 C.3     1  UNL1        0.0269
     43 C         145.9697  141.7370  163.7446 C.3     1  UNL1        0.0022
@<TRIPOS>BOND
     1    41    42    1
     2    42    43    1
     3    42    25    1
     4    25    26    1
     5    26    27   am
     6    27    28    2
     7    27    30    1
     8    30    31   ar
     9    31    32   ar
    10    32    37    1
    11    37    38    1
    12    37    39    1
    13    37    40    1
    14    32    33   ar
    15    33    34   ar
    16    34    35   ar
    17    35    36    1
    18    25     1    1
    19     1     2    2
    20     1     3   am
    21     3     4    1
    22     4     5    1
    23     5     6    1
    24     6     7    1
    25     7     8    1
    26     6     9    1
    27     9    10    2
    28     9    11   am
    29    11    12    1
    30    11    13   am
    31    13    14    2
    32    13    15   am
    33    15    16    1
    34    16    17    2
    35    17    18    1
    36    18    19    2
    37    19    20    1
    38    20    21    2
    39    21    22    1
    40    22    23    2
    41    23    24    1
    42    35    30   ar
    43     8     3    1
    44    24    16    1
    45    15     6    1
    46    23    19    1
    47    26    29    1
@<TRIPOS>MOLECULE
*****
 43 47 0 0 0
SMALL
GASTEIGER

@<TRIPOS>ATOM
      1 C         140.9962  143.1265  161.7699 C.2     1  UNL1        0.2435
      2 O         139.9659  144.2092  161.6426 O.2     1  UNL1       -0.2731
      3 N         141.1717  142.1248  160.6671 N.am    1  UNL1       -0.2781
      4 C         140.3169  142.2059  159.4372 C.3     1  UNL1        0.0956
      5 C         140.4925  141.2042  158.3346 C.3     1  UNL1        0.0490
      6 C         141.5228  140.1215  158.4619 C.3     1  UNL1        0.1377
      7 C         142.3775  140.0404  159.6918 C.3     1  UNL1        0.0490
      8 C         142.2020  141.0421  160.7944 C.3     1  UNL1        0.0956
      9 C         142.5064  138.9891  158.4477 C.2     1  UNL1        0.2491
     10 O         143.4873  138.6597  159.5337 O.2     1  UNL1       -0.2727
     11 N         142.3370  138.2441  157.1568 N.am    1  UNL1       -0.2108
     12 C         143.1187  137.0388  156.7253 C.3     1  UNL1        0.1245
     13 C         141.2486  138.9160  156.3732 C.2     1  UNL1        0.3168
     14 O         140.7509  138.5007  155.0206 O.2     1  UNL1       -0.2516
     15 N         140.7454  140.0763  157.1797 N.am    1  UNL1       -0.2411
     16 C         139.6561  141.0249  156.7753 C.2     1  UNL1        0.0376
     17 C         138.2247  140.6977  157.0816 C.2     1  UNL1        0.0125
     18 C         137.1354  141.6463  156.6772 C.2     1  UNL1        0.0216
     19 C         137.4776  142.9222  155.9663 C.2     1  UNL1        0.1008
     20 N         136.6250  144.0425  155.4486 N.2     1  UNL1       -0.1482
     21 N         137.5295  145.0619  154.8223 N.2     1  UNL1       -0.1467
     22 C         138.9411  144.5718  154.9529 C.2     1  UNL1        0.1198
     23 C         138.9090  143.2493  155.6599 C.2     1  UNL1        0.0238
     24 C         139.9983  142.3007  156.0644 C.3     1  UNL1        0.0710
     25 C         141.8510  143.0454  162.9998 C.3     1  UNL1        0.1489
     26 N         141.4602  142.1350  164.1260 N.am    1  UNL1       -0.2947
     27 C         140.4533  142.5878  165.1416 C.2     1  UNL1        0.2483
     28 O         139.8373  143.9509  165.0308 O.2     1  UNL1       -0.2701
     29 H         141.8646  141.2403  164.1987 H       1  UNL1        0.1501
     30 C         140.0626  141.6774  166.2678 C.ar    1  UNL1        0.0807
     31 C         139.2509  140.4468  165.9904 C.ar    1  UNL1        0.0106
     32 C         138.8602  139.5364  167.1166 C.ar    1  UNL1        0.0717
     33 C         139.2811  139.8566  168.5204 C.ar    1  UNL1        0.0062
     34 C         140.0926  141.0872  168.7978 C.ar    1  UNL1        0.0297
     35 C         140.4834  141.9976  167.6715 C.ar    1  UNL1        0.1444
     36 F         141.2950  143.2281  167.9489 F       1  UNL1       -0.2040
     37 C         138.0486  138.3058  166.8392 C.3     1  UNL1        0.4186
     38 F         137.2369  137.0752  166.5618 F       1  UNL1       -0.1659
     39 F         137.1808  138.6111  168.0240 F       1  UNL1       -0.1659
     40 F         138.9163  138.0006  165.6544 F       1  UNL1       -0.1659
     41 C         143.0945  145.1323  163.9212 C.3     1  UNL1        0.0022
     42 C         143.0966  143.8748  163.1035 C.3     1  UNL1        0.0269
     43 C         144.3443  143.4466  162.3894 C.3     1  UNL1        0.0022
@<TRIPOS>BOND
     1    41    42    1
     2    42    43    1
     3    42    25    1
     4    25    26    1
     5    26    27   am
     6    27    28    2
     7    27    30    1
     8    30    31   ar
     9    31    32   ar
    10    32    37    1
    11    37    38    1
    12    37    39    1
    13    37    40    1
    14    32    33   ar
    15    33    34   ar
    16    34    35   ar
    17    35    36    1
    18    25     1    1
    19     1     2    2
    20     1     3   am
    21     3     4    1
    22     4     5    1
    23     5     6    1
    24     6     7    1
    25     7     8    1
    26     6     9    1
    27     9    10    2
    28     9    11   am
    29    11    12    1
    30    11    13   am
    31    13    14    2
    32    13    15   am
    33    15    16    1
    34    16    17    2
    35    17    18    1
    36    18    19    2
    37    19    20    1
    38    20    21    2
    39    21    22    1
    40    22    23    2
    41    23    24    1
    42    35    30   ar
    43     8     3    1
    44    24    16    1
    45    15     6    1
    46    23    19    1
    47    26    29    1
@<TRIPOS>MOLECULE
*****
 43 47 0 0 0
SMALL
GASTEIGER

@<TRIPOS>ATOM
      1 C         139.8498  139.2310  160.7788 C.2     1  UNL1        0.2435
      2 O         139.0090  137.9944  160.6608 O.2     1  UNL1       -0.2731
      3 N         140.9461  139.4899  159.7882 N.am    1  UNL1       -0.2781
      4 C         141.2016  138.5123  158.6797 C.3     1  UNL1        0.0956
      5 C         142.2978  138.7712  157.6892 C.3     1  UNL1        0.0490
      6 C         143.1386  140.0078  157.8072 C.3     1  UNL1        0.1377
      7 C         142.8832  140.9854  158.9158 C.3     1  UNL1        0.0490
      8 C         141.7869  140.7265  159.9063 C.3     1  UNL1        0.0956
      9 C         144.0564  141.1942  157.7979 C.2     1  UNL1        0.2491
     10 O         144.0391  142.3300  158.7775 O.2     1  UNL1       -0.2727
     11 N         144.9946  141.0454  156.6369 N.am    1  UNL1       -0.2108
     12 C         146.0801  142.0063  156.2518 C.3     1  UNL1        0.1245
     13 C         144.6566  139.7670  155.9287 C.2     1  UNL1        0.3168
     14 O         145.3448  139.2251  154.7112 O.2     1  UNL1       -0.2516
     15 N         143.5096  139.1257  156.6520 N.am    1  UNL1       -0.2411
     16 C         142.8494  137.8299  156.2846 C.2     1  UNL1        0.0376
     17 C         141.6677  137.8257  155.3608 C.2     1  UNL1        0.0125
     18 C         141.0075  136.5298  154.9935 C.2     1  UNL1        0.0216
     19 C         141.5290  135.2381  155.5500 C.2     1  UNL1        0.1008
     20 N         141.0878  133.8161  155.3684 N.2     1  UNL1       -0.1482
     21 N         141.9967  132.9415  156.1799 N.2     1  UNL1       -0.1467
     22 C         142.9998  133.8229  156.8631 C.2     1  UNL1        0.1198
     23 C         142.7108  135.2424  156.4738 C.2     1  UNL1        0.0238
     24 C         143.3709  136.5382  156.8411 C.3     1  UNL1        0.0710
     25 C         139.5944  140.2087  161.8874 C.3     1  UNL1        0.1489
     26 N         140.4534  140.1896  163.1170 N.am    1  UNL1       -0.2947
     27 C         140.1208  139.2644  164.2499 C.2     1  UNL1        0.2483
     28 O         138.9294  138.3583  164.1532 O.2     1  UNL1       -0.2701
     29 H         141.2354  140.7843  163.1804 H       1  UNL1        0.1501
     30 C         140.9798  139.2453  165.4794 C.ar    1  UNL1        0.0807
     31 C         140.4189  139.7029  166.7933 C.ar    1  UNL1        0.0106
     32 C         141.2779  139.6838  168.0229 C.ar    1  UNL1        0.0717
     33 C         142.6977  139.2072  167.9386 C.ar    1  UNL1        0.0062
     34 C         143.2585  138.7497  166.6248 C.ar    1  UNL1        0.0297
     35 C         142.3996  138.7688  165.3952 C.ar    1  UNL1        0.1444
     36 F         142.9604  138.3113  164.0814 F       1  UNL1       -0.2040
     37 C         140.7171  140.1413  169.3367 C.3     1  UNL1        0.4186
     38 F         140.1563  140.5988  170.6506 F       1  UNL1       -0.1659
     39 F         141.6673  139.2326  170.0587 F       1  UNL1       -0.1659
     40 F         139.7669  141.0500  168.6147 F       1  UNL1       -0.1659
     41 C         137.3646  141.2088  162.7693 C.3     1  UNL1        0.0022
     42 C         138.4800  141.2054  161.7664 C.3     1  UNL1        0.0269
     43 C         138.4810  142.1988  160.6425 C.3     1  UNL1        0.0022
@<TRIPOS>BOND
     1    41    42    1
     2    42    43    1
     3    42    25    1
     4    25    26    1
     5    26    27   am
     6    27    28    2
     7    27    30    1
     8    30    31   ar
     9    31    32   ar
    10    32    37    1
    11    37    38    1
    12    37    39    1
    13    37    40    1
    14    32    33   ar
    15    33    34   ar
    16    34    35   ar
    17    35    36    1
    18    25     1    1
    19     1     2    2
    20     1     3   am
    21     3     4    1
    22     4     5    1
    23     5     6    1
    24     6     7    1
    25     7     8    1
    26     6     9    1
    27     9    10    2
    28     9    11   am
    29    11    12    1
    30    11    13   am
    31    13    14    2
    32    13    15   am
    33    15    16    1
    34    16    17    2
    35    17    18    1
    36    18    19    2
    37    19    20    1
    38    20    21    2
    39    21    22    1
    40    22    23    2
    41    23    24    1
    42    35    30   ar
    43     8     3    1
    44    24    16    1
    45    15     6    1
    46    23    19    1
    47    26    29    1
@<TRIPOS>MOLECULE
*****
 43 47 0 0 0
SMALL
GASTEIGER

@<TRIPOS>ATOM
      1 C         139.8756  139.2294  160.7527 C.2     1  UNL1        0.2435
      2 O         139.0291  137.9974  160.6277 O.2     1  UNL1       -0.2731
      3 N         140.9744  139.4878  159.7647 N.am    1  UNL1       -0.2781
      4 C         141.2266  138.5143  158.6518 C.3     1  UNL1        0.0956
      5 C         142.3253  138.7727  157.6639 C.3     1  UNL1        0.0490
      6 C         143.1718  140.0047  157.7889 C.3     1  UNL1        0.1377
      7 C         142.9196  140.9782  158.9019 C.3     1  UNL1        0.0490
      8 C         141.8209  140.7198  159.8897 C.3     1  UNL1        0.0956
      9 C         144.0952  141.1868  157.7865 C.2     1  UNL1        0.2491
     10 O         144.0820  142.3180  158.7715 O.2     1  UNL1       -0.2727
     11 N         145.0342  141.0391  156.6260 N.am    1  UNL1       -0.2108
     12 C         146.1248  141.9966  156.2469 C.3     1  UNL1        0.1245
     13 C         144.6910  139.7657  155.9113 C.2     1  UNL1        0.3168
     14 O         145.3782  139.2264  154.6920 O.2     1  UNL1       -0.2516
     15 N         143.5401  139.1264  156.6300 N.am    1  UNL1       -0.2411
     16 C         142.8742  137.8356  156.2556 C.2     1  UNL1        0.0376
     17 C         141.6962  137.8410  155.3270 C.2     1  UNL1        0.0125
     18 C         141.0304  136.5501  154.9526 C.2     1  UNL1        0.0216
     19 C         141.5425  135.2537  155.5068 C.2     1  UNL1        0.1008
     20 N         141.0941  133.8347  155.3186 N.2     1  UNL1       -0.1482
     21 N         141.9949  132.9523  156.1308 N.2     1  UNL1       -0.1467
     22 C         143.0001  133.8259  156.8211 C.2     1  UNL1        0.1198
     23 C         142.7205  135.2482  156.4354 C.2     1  UNL1        0.0238
     24 C         143.3863  136.5392  156.8098 C.3     1  UNL1        0.0710
     25 C         139.6234  140.2029  161.8656 C.3     1  UNL1        0.1489
     26 N         140.4916  140.1851  163.0887 N.am    1  UNL1       -0.2947
     27 C         140.1614  139.2688  164.2295 C.2     1  UNL1        0.2483
     28 O         138.9632  138.3702  164.1472 O.2     1  UNL1       -0.2701
     29 H         141.2780  140.7749  163.1428 H       1  UNL1        0.1501
     30 C         141.0296  139.2510  165.4526 C.ar    1  UNL1        0.0807
     31 C         142.3709  138.5807  165.4107 C.ar    1  UNL1        0.0106
     32 C         143.2390  138.5630  166.6338 C.ar    1  UNL1        0.0717
     33 C         142.7658  139.2155  167.8989 C.ar    1  UNL1        0.0062
     34 C         141.4246  139.8858  167.9408 C.ar    1  UNL1        0.0297
     35 C         140.5565  139.9035  166.7177 C.ar    1  UNL1        0.1444
     36 F         139.2152  140.5738  166.7596 F       1  UNL1       -0.2040
     37 C         144.5802  137.8927  166.5919 C.3     1  UNL1        0.4186
     38 F         145.9215  137.2224  166.5500 F       1  UNL1       -0.1659
     39 F         144.1860  137.0311  167.7547 F       1  UNL1       -0.1659
     40 F         144.9744  138.7543  165.4290 F       1  UNL1       -0.1659
     41 C         138.5395  142.2522  160.6928 C.3     1  UNL1        0.0022
     42 C         138.5030  141.1942  161.7554 C.3     1  UNL1        0.0269
     43 C         137.3462  141.1275  162.7079 C.3     1  UNL1        0.0022
@<TRIPOS>BOND
     1    41    42    1
     2    42    43    1
     3    42    25    1
     4    25    26    1
     5    26    27   am
     6    27    28    2
     7    27    30    1
     8    30    31   ar
     9    31    32   ar
    10    32    37    1
    11    37    38    1
    12    37    39    1
    13    37    40    1
    14    32    33   ar
    15    33    34   ar
    16    34    35   ar
    17    35    36    1
    18    25     1    1
    19     1     2    2
    20     1     3   am
    21     3     4    1
    22     4     5    1
    23     5     6    1
    24     6     7    1
    25     7     8    1
    26     6     9    1
    27     9    10    2
    28     9    11   am
    29    11    12    1
    30    11    13   am
    31    13    14    2
    32    13    15   am
    33    15    16    1
    34    16    17    2
    35    17    18    1
    36    18    19    2
    37    19    20    1
    38    20    21    2
    39    21    22    1
    40    22    23    2
    41    23    24    1
    42    35    30   ar
    43     8     3    1
    44    24    16    1
    45    15     6    1
    46    23    19    1
    47    26    29    1
@<TRIPOS>MOLECULE
*****
 43 47 0 0 0
SMALL
GASTEIGER

@<TRIPOS>ATOM
      1 C         143.2632  141.1346  161.8764 C.2     1  UNL1        0.2435
      2 O         144.4617  140.2417  161.7487 O.2     1  UNL1       -0.2731
      3 N         142.2997  141.2647  160.7340 N.am    1  UNL1       -0.2781
      4 C         142.5348  140.5019  159.4641 C.3     1  UNL1        0.0956
      5 C         141.5714  140.6320  158.3218 C.3     1  UNL1        0.0490
      6 C         140.3729  141.5249  158.4495 C.3     1  UNL1        0.1377
      7 C         140.1378  142.2877  159.7194 C.3     1  UNL1        0.0490
      8 C         141.1012  142.1576  160.8617 C.3     1  UNL1        0.0956
      9 C         139.1370  142.3747  158.4308 C.2     1  UNL1        0.2491
     10 O         138.6475  143.2436  159.5513 O.2     1  UNL1       -0.2727
     11 N         138.4764  142.2030  157.0950 N.am    1  UNL1       -0.2108
     12 C         137.2105  142.8702  156.6452 C.3     1  UNL1        0.1245
     13 C         139.3042  141.2471  156.2881 C.2     1  UNL1        0.3168
     14 O         139.0113  140.7905  154.8897 O.2     1  UNL1       -0.2516
     15 N         140.4762  140.8280  157.1251 N.am    1  UNL1       -0.2411
     16 C         141.5611  139.8787  156.7107 C.2     1  UNL1        0.0376
     17 C         142.8076  140.4018  156.0607 C.2     1  UNL1        0.0125
     18 C         143.8924  139.4524  155.6463 C.2     1  UNL1        0.0216
     19 C         143.7309  137.9798  155.8820 C.2     1  UNL1        0.1008
     20 N         144.6230  136.8116  155.5830 N.2     1  UNL1       -0.1482
     21 N         143.9280  135.5666  156.0483 N.2     1  UNL1       -0.1467
     22 C         142.6062  135.9652  156.6349 C.2     1  UNL1        0.1198
     23 C         142.4844  137.4567  156.5321 C.2     1  UNL1        0.0238
     24 C         141.3996  138.4061  156.9464 C.3     1  UNL1        0.0710
     25 C         143.0281  141.8974  163.1464 C.3     1  UNL1        0.1489
     26 N         141.8615  141.5520  164.0237 N.am    1  UNL1       -0.2947
     27 C         141.8800  140.2894  164.8336 C.2     1  UNL1        0.2483
     28 O         143.0651  139.3724  164.7660 O.2     1  UNL1       -0.2701
     29 H         141.0837  142.1539  164.0681 H       1  UNL1        0.1501
     30 C         140.7135  139.9440  165.7109 C.ar    1  UNL1        0.0807
     31 C         140.7990  140.1619  167.1926 C.ar    1  UNL1        0.0106
     32 C         139.6324  139.8165  168.0700 C.ar    1  UNL1        0.0717
     33 C         138.3803  139.2532  167.4657 C.ar    1  UNL1        0.0062
     34 C         138.2948  139.0354  165.9841 C.ar    1  UNL1        0.0297
     35 C         139.4614  139.3808  165.1067 C.ar    1  UNL1        0.1444
     36 F         139.3760  139.1630  163.6251 F       1  UNL1       -0.2040
     37 C         139.7178  140.0343  169.5516 C.3     1  UNL1        0.4186
     38 F         139.8033  140.2521  171.0333 F       1  UNL1       -0.1659
     39 F         138.2223  140.1239  169.6247 F       1  UNL1       -0.1659
     40 F         141.2133  139.9447  169.4785 F       1  UNL1       -0.1659
     41 C         144.4326  143.1206  164.9578 C.3     1  UNL1        0.0022
     42 C         143.9596  143.0057  163.5390 C.3     1  UNL1        0.0269
     43 C         144.4180  143.9990  162.5128 C.3     1  UNL1        0.0022
@<TRIPOS>BOND
     1    41    42    1
     2    42    43    1
     3    42    25    1
     4    25    26    1
     5    26    27   am
     6    27    28    2
     7    27    30    1
     8    30    31   ar
     9    31    32   ar
    10    32    37    1
    11    37    38    1
    12    37    39    1
    13    37    40    1
    14    32    33   ar
    15    33    34   ar
    16    34    35   ar
    17    35    36    1
    18    25     1    1
    19     1     2    2
    20     1     3   am
    21     3     4    1
    22     4     5    1
    23     5     6    1
    24     6     7    1
    25     7     8    1
    26     6     9    1
    27     9    10    2
    28     9    11   am
    29    11    12    1
    30    11    13   am
    31    13    14    2
    32    13    15   am
    33    15    16    1
    34    16    17    2
    35    17    18    1
    36    18    19    2
    37    19    20    1
    38    20    21    2
    39    21    22    1
    40    22    23    2
    41    23    24    1
    42    35    30   ar
    43     8     3    1
    44    24    16    1
    45    15     6    1
    46    23    19    1
    47    26    29    1
@<TRIPOS>MOLECULE
*****
 43 47 0 0 0
SMALL
GASTEIGER

@<TRIPOS>ATOM
      1 C         141.1697  138.9219  163.1676 C.2     1  UNL1        0.2435
      2 O         142.0851  137.9128  162.5402 O.2     1  UNL1       -0.2731
      3 N         141.0576  140.2987  162.5827 N.am    1  UNL1       -0.2781
      4 C         141.8608  140.6662  161.3704 C.3     1  UNL1        0.0956
      5 C         141.7487  142.0429  160.7856 C.3     1  UNL1        0.0490
      6 C         140.8333  143.0521  161.4130 C.3     1  UNL1        0.1377
      7 C         140.0301  142.6846  162.6253 C.3     1  UNL1        0.0490
      8 C         140.1422  141.3079  163.2101 C.3     1  UNL1        0.0956
      9 C         139.9647  144.1610  161.9286 C.2     1  UNL1        0.2491
     10 O         139.0557  144.0879  163.1195 O.2     1  UNL1       -0.2727
     11 N         140.1647  145.3559  161.0440 N.am    1  UNL1       -0.2108
     12 C         139.4907  146.6875  161.1952 C.3     1  UNL1        0.1245
     13 C         141.1569  144.9855  159.9818 C.2     1  UNL1        0.3168
     14 O         141.6494  145.8815  158.8844 O.2     1  UNL1       -0.2516
     15 N         141.5702  143.5617  160.2098 N.am    1  UNL1       -0.2411
     16 C         142.5485  142.7839  159.3804 C.2     1  UNL1        0.0376
     17 C         144.0173  142.8755  159.6705 C.2     1  UNL1        0.0125
     18 C         144.9955  142.0977  158.8411 C.2     1  UNL1        0.0216
     19 C         144.5050  141.2282  157.7214 C.2     1  UNL1        0.1008
     20 N         145.2267  140.3521  156.7409 N.2     1  UNL1       -0.1482
     21 N         144.2039  139.7190  155.8448 N.2     1  UNL1       -0.1467
     22 C         142.8501  140.2039  156.2715 C.2     1  UNL1        0.1198
     23 C         143.0362  141.1366  157.4313 C.2     1  UNL1        0.0238
     24 C         142.0580  141.9145  158.2608 C.3     1  UNL1        0.0710
     25 C         140.3665  138.5544  164.3799 C.3     1  UNL1        0.1489
     26 N         140.8281  138.9790  165.7425 N.am    1  UNL1       -0.2947
     27 C         140.0350  139.9844  166.5236 C.2     1  UNL1        0.2483
     28 O         138.7802  140.5653  165.9421 O.2     1  UNL1       -0.2701
     29 H         141.6517  138.5978  166.1242 H       1  UNL1        0.1501
     30 C         140.4966  140.4090  167.8861 C.ar    1  UNL1        0.0807
     31 C         141.8490  141.0348  168.0586 C.ar    1  UNL1        0.0106
     32 C         142.3106  141.4593  169.4212 C.ar    1  UNL1        0.0717
     33 C         141.4199  141.2581  170.6113 C.ar    1  UNL1        0.0062
     34 C         140.0677  140.6324  170.4388 C.ar    1  UNL1        0.0297
     35 C         139.6060  140.2078  169.0762 C.ar    1  UNL1        0.1444
     36 F         138.2538  139.5821  168.9037 F       1  UNL1       -0.2040
     37 C         143.6629  142.0851  169.5937 C.3     1  UNL1        0.4186
     38 F         145.0152  142.7108  169.7663 F       1  UNL1       -0.1659
     39 F         143.8386  141.3483  170.8884 F       1  UNL1       -0.1659
     40 F         143.4871  142.8219  168.2991 F       1  UNL1       -0.1659
     41 C         138.4687  137.6090  162.8784 C.3     1  UNL1        0.0022
     42 C         139.1015  137.7623  164.2297 C.3     1  UNL1        0.0269
     43 C         138.4695  137.1235  165.4307 C.3     1  UNL1        0.0022
@<TRIPOS>BOND
     1    41    42    1
     2    42    43    1
     3    42    25    1
     4    25    26    1
     5    26    27   am
     6    27    28    2
     7    27    30    1
     8    30    31   ar
     9    31    32   ar
    10    32    37    1
    11    37    38    1
    12    37    39    1
    13    37    40    1
    14    32    33   ar
    15    33    34   ar
    16    34    35   ar
    17    35    36    1
    18    25     1    1
    19     1     2    2
    20     1     3   am
    21     3     4    1
    22     4     5    1
    23     5     6    1
    24     6     7    1
    25     7     8    1
    26     6     9    1
    27     9    10    2
    28     9    11   am
    29    11    12    1
    30    11    13   am
    31    13    14    2
    32    13    15   am
    33    15    16    1
    34    16    17    2
    35    17    18    1
    36    18    19    2
    37    19    20    1
    38    20    21    2
    39    21    22    1
    40    22    23    2
    41    23    24    1
    42    35    30   ar
    43     8     3    1
    44    24    16    1
    45    15     6    1
    46    23    19    1
    47    26    29    1
@<TRIPOS>MOLECULE
*****
 43 47 0 0 0
SMALL
GASTEIGER

@<TRIPOS>ATOM
      1 C         141.2389  141.7188  161.4985 C.2     1  UNL1        0.2435
      2 O         139.9536  140.9513  161.5934 O.2     1  UNL1       -0.2731
      3 N         142.1365  141.5346  160.3108 N.am    1  UNL1       -0.2781
      4 C         141.7488  140.5829  159.2182 C.3     1  UNL1        0.0956
      5 C         142.6464  140.3988  158.0306 C.3     1  UNL1        0.0490
      6 C         143.9316  141.1663  157.9356 C.3     1  UNL1        0.1377
      7 C         144.3193  142.1180  159.0283 C.3     1  UNL1        0.0490
      8 C         143.4217  142.3022  160.2159 C.3     1  UNL1        0.0956
      9 C         145.2406  141.8611  157.7036 C.2     1  UNL1        0.2491
     10 O         145.8818  142.8621  158.6184 O.2     1  UNL1       -0.2727
     11 N         145.7958  141.3792  156.3960 N.am    1  UNL1       -0.2108
     12 C         147.0897  141.8136  155.7738 C.3     1  UNL1        0.1245
     13 C         144.8299  140.3865  155.8200 C.2     1  UNL1        0.3168
     14 O         144.9883  139.6541  154.5207 O.2     1  UNL1       -0.2516
     15 N         143.6778  140.2550  156.7715 N.am    1  UNL1       -0.2411
     16 C         142.4819  139.3679  156.5907 C.2     1  UNL1        0.0376
     17 C         142.5284  137.9422  157.0547 C.2     1  UNL1        0.0125
     18 C         141.3324  137.0552  156.8739 C.2     1  UNL1        0.0216
     19 C         140.0898  137.5937  156.2290 C.2     1  UNL1        0.1008
     20 N         138.7652  136.9619  155.9190 N.2     1  UNL1       -0.1482
     21 N         137.9000  137.9969  155.2634 N.2     1  UNL1       -0.1467
     22 C         138.6898  139.2686  155.1681 C.2     1  UNL1        0.1198
     23 C         140.0432  139.0194  155.7649 C.2     1  UNL1        0.0238
     24 C         141.2392  139.9064  155.9458 C.3     1  UNL1        0.0710
     25 C         141.6265  142.6705  162.5911 C.3     1  UNL1        0.1489
     26 N         142.1690  142.1442  163.8868 N.am    1  UNL1       -0.2947
     27 C         141.2512  141.9368  165.0551 C.2     1  UNL1        0.2483
     28 O         139.7911  142.2559  164.9277 O.2     1  UNL1       -0.2701
     29 H         143.1273  141.9348  163.9704 H       1  UNL1        0.1501
     30 C         141.7937  141.4105  166.3507 C.ar    1  UNL1        0.0807
     31 C         142.1404  142.3595  167.4594 C.ar    1  UNL1        0.0106
     32 C         142.6829  141.8331  168.7550 C.ar    1  UNL1        0.0717
     33 C         142.8786  140.3577  168.9420 C.ar    1  UNL1        0.0062
     34 C         142.5318  139.4087  167.8333 C.ar    1  UNL1        0.0297
     35 C         141.9894  139.9351  166.5377 C.ar    1  UNL1        0.1444
     36 F         141.6427  138.9861  165.4290 F       1  UNL1       -0.2040
     37 C         143.0296  142.7821  169.8637 C.3     1  UNL1        0.4186
     38 F         143.3764  143.7311  170.9724 F       1  UNL1       -0.1659
     39 F         144.3922  142.1635  169.9670 F       1  UNL1       -0.1659
     40 F         141.6670  143.4007  169.7604 F       1  UNL1       -0.1659
     41 C         140.6885  144.6672  161.2187 C.3     1  UNL1        0.0022
     42 C         141.4718  144.1487  162.3881 C.3     1  UNL1        0.0269
     43 C         142.1003  145.1083  163.3547 C.3     1  UNL1        0.0022
@<TRIPOS>BOND
     1    41    42    1
     2    42    43    1
     3    42    25    1
     4    25    26    1
     5    26    27   am
     6    27    28    2
     7    27    30    1
     8    30    31   ar
     9    31    32   ar
    10    32    37    1
    11    37    38    1
    12    37    39    1
    13    37    40    1
    14    32    33   ar
    15    33    34   ar
    16    34    35   ar
    17    35    36    1
    18    25     1    1
    19     1     2    2
    20     1     3   am
    21     3     4    1
    22     4     5    1
    23     5     6    1
    24     6     7    1
    25     7     8    1
    26     6     9    1
    27     9    10    2
    28     9    11   am
    29    11    12    1
    30    11    13   am
    31    13    14    2
    32    13    15   am
    33    15    16    1
    34    16    17    2
    35    17    18    1
    36    18    19    2
    37    19    20    1
    38    20    21    2
    39    21    22    1
    40    22    23    2
    41    23    24    1
    42    35    30   ar
    43     8     3    1
    44    24    16    1
    45    15     6    1
    46    23    19    1
    47    26    29    1
@<TRIPOS>MOLECULE
*****
 43 47 0 0 0
SMALL
GASTEIGER

@<TRIPOS>ATOM
      1 C         141.0831  143.0893  161.8327 C.2     1  UNL1        0.2435
      2 O         140.0600  144.1788  161.7059 O.2     1  UNL1       -0.2731
      3 N         141.2360  142.0731  160.7399 N.am    1  UNL1       -0.2781
      4 C         140.3657  142.1466  159.5204 C.3     1  UNL1        0.0956
      5 C         140.5186  141.1304  158.4277 C.3     1  UNL1        0.0490
      6 C         141.5417  140.0409  158.5545 C.3     1  UNL1        0.1377
      7 C         142.4119  139.9674  159.7740 C.3     1  UNL1        0.0490
      8 C         142.2591  140.9835  160.8667 C.3     1  UNL1        0.0956
      9 C         142.5159  138.9003  158.5410 C.2     1  UNL1        0.2491
     10 O         143.5083  138.5757  159.6179 O.2     1  UNL1       -0.2727
     11 N         142.3235  138.1414  157.2615 N.am    1  UNL1       -0.2108
     12 C         143.0897  136.9246  156.8343 C.3     1  UNL1        0.1245
     13 C         141.2303  138.8129  156.4842 C.2     1  UNL1        0.3168
     14 O         140.7114  138.3855  155.1433 O.2     1  UNL1       -0.2516
     15 N         140.7471  139.9868  157.2833 N.am    1  UNL1       -0.2411
     16 C         139.6603  140.9394  156.8818 C.2     1  UNL1        0.0376
     17 C         138.2316  140.6336  157.2214 C.2     1  UNL1        0.0125
     18 C         137.1448  141.5862  156.8198 C.2     1  UNL1        0.0216
     19 C         137.4866  142.8448  156.0786 C.2     1  UNL1        0.1008
     20 N         136.6361  143.9644  155.5561 N.2     1  UNL1       -0.1482
     21 N         137.5391  144.9621  154.8936 N.2     1  UNL1       -0.1467
     22 C         138.9477  144.4592  155.0066 C.2     1  UNL1        0.1198
     23 C         138.9153  143.1506  155.7390 C.2     1  UNL1        0.0238
     24 C         140.0021  142.1979  156.1406 C.3     1  UNL1        0.0710
     25 C         141.9534  143.0158  163.0522 C.3     1  UNL1        0.1489
     26 N         141.5563  142.1427  164.2055 N.am    1  UNL1       -0.2947
     27 C         140.5797  142.6469  165.2264 C.2     1  UNL1        0.2483
     28 O         140.0003  144.0241  165.0940 O.2     1  UNL1       -0.2701
     29 H         141.9366  141.2388  164.2924 H       1  UNL1        0.1501
     30 C         140.1827  141.7738  166.3797 C.ar    1  UNL1        0.0807
     31 C         140.5604  142.1615  167.7787 C.ar    1  UNL1        0.0106
     32 C         140.1633  141.2884  168.9320 C.ar    1  UNL1        0.0717
     33 C         139.3885  140.0276  168.6862 C.ar    1  UNL1        0.0062
     34 C         139.0109  139.6400  167.2873 C.ar    1  UNL1        0.0297
     35 C         139.4079  140.5131  166.1340 C.ar    1  UNL1        0.1444
     36 F         139.0303  140.1255  164.7351 F       1  UNL1       -0.2040
     37 C         140.5410  141.6760  170.3309 C.3     1  UNL1        0.4186
     38 F         140.9186  142.0637  171.7299 F       1  UNL1       -0.1659
     39 F         139.3843  142.6297  170.3789 F       1  UNL1       -0.1659
     40 F         141.6977  140.7223  170.2829 F       1  UNL1       -0.1659
     41 C         143.2256  145.1595  163.7846 C.3     1  UNL1        0.0022
     42 C         143.2208  143.8155  163.1185 C.3     1  UNL1        0.0269
     43 C         144.4832  143.2712  162.5186 C.3     1  UNL1        0.0022
@<TRIPOS>BOND
     1    41    42    1
     2    42    43    1
     3    42    25    1
     4    25    26    1
     5    26    27   am
     6    27    28    2
     7    27    30    1
     8    30    31   ar
     9    31    32   ar
    10    32    37    1
    11    37    38    1
    12    37    39    1
    13    37    40    1
    14    32    33   ar
    15    33    34   ar
    16    34    35   ar
    17    35    36    1
    18    25     1    1
    19     1     2    2
    20     1     3   am
    21     3     4    1
    22     4     5    1
    23     5     6    1
    24     6     7    1
    25     7     8    1
    26     6     9    1
    27     9    10    2
    28     9    11   am
    29    11    12    1
    30    11    13   am
    31    13    14    2
    32    13    15   am
    33    15    16    1
    34    16    17    2
    35    17    18    1
    36    18    19    2
    37    19    20    1
    38    20    21    2
    39    21    22    1
    40    22    23    2
    41    23    24    1
    42    35    30   ar
    43     8     3    1
    44    24    16    1
    45    15     6    1
    46    23    19    1
    47    26    29    1
