@<TRIPOS>MOLECULE
*****
 31 35 0 0 0
SMALL
GASTEIGER

@<TRIPOS>ATOM
      1 O         140.3047  140.9434  163.1528 O.2     1  UNL1       -0.2526
      2 C         141.4826  140.0151  163.1225 C.2     1  UNL1        0.3039
      3 N         142.2806  139.7751  164.3698 N.am    1  UNL1       -0.2901
      4 N         141.8625  139.3268  161.8450 N.am    1  UNL1       -0.2642
      5 C         141.0645  139.5668  160.5978 C.3     1  UNL1        0.0954
      6 C         141.4444  138.8786  159.3203 C.3     1  UNL1        0.0309
      7 C         142.6223  137.9503  159.2901 C.3     1  UNL1        0.0827
      8 C         143.4203  137.7103  160.5373 C.3     1  UNL1        0.0309
      9 C         143.0404  138.3986  161.8148 C.3     1  UNL1        0.0954
     10 H         143.0537  139.1658  164.3499 H       1  UNL1        0.1509
     11 C         141.9007  140.4634  165.6473 C.3     1  UNL1        0.0777
     12 C         142.5940  141.7307  166.0512 C.3     1  UNL1        0.0246
     13 C         142.2141  142.4190  167.3287 C.3     1  UNL1        0.0277
     14 C         141.1409  141.8400  168.2022 C.ar    1  UNL1       -0.0260
     15 C         140.7610  142.5283  169.4797 C.ar    1  UNL1       -0.0046
     16 C         139.6878  141.9492  170.3531 C.ar    1  UNL1       -0.0003
     17 C         138.9945  140.6819  169.9491 C.ar    1  UNL1       -0.0003
     18 C         139.3744  139.9936  168.6717 C.ar    1  UNL1       -0.0045
     19 C         140.4476  140.5726  167.7983 C.ar    1  UNL1       -0.0245
     20 C         140.8275  139.8843  166.5207 C.3     1  UNL1        0.0456
     21 C         143.0022  137.2620  158.0126 C.ar    1  UNL1        0.2362
     22 N         142.8061  135.8076  157.7027 N.ar    1  UNL1       -0.1895
     23 C         143.3276  135.5540  156.3193 C.ar    1  UNL1        0.2210
     24 N         143.8460  136.8518  155.7742 N.ar    1  UNL1       -0.0544
     25 O         143.6448  137.9074  156.8207 O.2     1  UNL1       -0.3370
     26 C         143.3302  134.2344  155.6062 C.ar    1  UNL1        0.1203
     27 C         142.5307  134.0595  154.3491 C.ar    1  UNL1        0.0224
     28 C         142.5333  132.7399  153.6359 C.ar    1  UNL1        0.0032
     29 C         143.3355  131.5951  154.1799 C.ar    1  UNL1        0.0207
     30 C         144.1350  131.7699  155.4370 C.ar    1  UNL1        0.0989
     31 N         144.1324  133.0895  156.1501 N.ar    1  UNL1       -0.2406
@<TRIPOS>BOND
     1     1     2    2
     2     2     3   am
     3     3    11    1
     4    11    12    1
     5    12    13    1
     6    13    14    1
     7    14    15   ar
     8    15    16   ar
     9    16    17   ar
    10    17    18   ar
    11    18    19   ar
    12    19    20    1
    13     2     4   am
    14     4     5    1
    15     5     6    1
    16     6     7    1
    17     7    21    1
    18    21    22   ar
    19    22    23   ar
    20    23    26    1
    21    26    27   ar
    22    27    28   ar
    23    28    29   ar
    24    29    30   ar
    25    30    31   ar
    26    23    24   ar
    27    24    25   ar
    28     7     8    1
    29     8     9    1
    30    20    11    1
    31     9     4    1
    32    19    14   ar
    33    25    21   ar
    34    31    26   ar
    35     3    10    1
@<TRIPOS>MOLECULE
*****
 31 35 0 0 0
SMALL
GASTEIGER

@<TRIPOS>ATOM
      1 O         142.6337  138.6629  164.7901 O.2     1  UNL1       -0.2526
      2 C         141.6447  139.0565  163.7332 C.2     1  UNL1        0.3039
      3 N         140.3809  139.7679  164.1162 N.am    1  UNL1       -0.2901
      4 N         141.9195  138.7385  162.2933 N.am    1  UNL1       -0.2642
      5 C         143.1832  138.0271  161.9102 C.3     1  UNL1        0.0954
      6 C         143.4580  137.7092  160.4703 C.3     1  UNL1        0.0309
      7 C         142.4690  138.1027  159.4134 C.3     1  UNL1        0.0827
      8 C         141.2053  138.8141  159.7964 C.3     1  UNL1        0.0309
      9 C         140.9305  139.1321  161.2364 C.3     1  UNL1        0.0954
     10 H         139.7318  140.0262  163.4225 H       1  UNL1        0.1509
     11 C         140.1061  140.0858  165.5562 C.3     1  UNL1        0.0777
     12 C         139.2400  139.1738  166.3735 C.3     1  UNL1        0.0246
     13 C         138.9652  139.4917  167.8135 C.3     1  UNL1        0.0277
     14 C         139.5565  140.7216  168.4361 C.ar    1  UNL1       -0.0260
     15 C         139.2818  141.0394  169.8760 C.ar    1  UNL1       -0.0046
     16 C         139.8731  142.2693  170.4986 C.ar    1  UNL1       -0.0003
     17 C         140.7393  143.1813  169.6813 C.ar    1  UNL1       -0.0003
     18 C         141.0141  142.8635  168.2414 C.ar    1  UNL1       -0.0045
     19 C         140.4227  141.6336  167.6188 C.ar    1  UNL1       -0.0245
     20 C         140.6975  141.3157  166.1788 C.3     1  UNL1        0.0456
     21 C         142.7438  137.7848  157.9735 C.ar    1  UNL1        0.2362
     22 N         142.1827  136.6260  157.2038 N.ar    1  UNL1       -0.1895
     23 C         142.7201  136.6949  155.8051 C.ar    1  UNL1        0.2210
     24 N         143.6133  137.8962  155.7103 N.ar    1  UNL1       -0.0544
     25 O         143.6280  138.5698  157.0504 O.2     1  UNL1       -0.3370
     26 C         142.4174  135.7315  154.6959 C.ar    1  UNL1        0.1203
     27 C         142.6039  134.2586  154.9099 C.ar    1  UNL1        0.0224
     28 C         142.3012  133.2952  153.8007 C.ar    1  UNL1        0.0032
     29 C         141.8119  133.8048  152.4774 C.ar    1  UNL1        0.0207
     30 C         141.6254  135.2777  152.2634 C.ar    1  UNL1        0.0989
     31 N         141.9281  136.2410  153.3726 N.ar    1  UNL1       -0.2406
@<TRIPOS>BOND
     1     1     2    2
     2     2     3   am
     3     3    11    1
     4    11    12    1
     5    12    13    1
     6    13    14    1
     7    14    15   ar
     8    15    16   ar
     9    16    17   ar
    10    17    18   ar
    11    18    19   ar
    12    19    20    1
    13     2     4   am
    14     4     5    1
    15     5     6    1
    16     6     7    1
    17     7    21    1
    18    21    22   ar
    19    22    23   ar
    20    23    26    1
    21    26    27   ar
    22    27    28   ar
    23    28    29   ar
    24    29    30   ar
    25    30    31   ar
    26    23    24   ar
    27    24    25   ar
    28     7     8    1
    29     8     9    1
    30    20    11    1
    31     9     4    1
    32    19    14   ar
    33    25    21   ar
    34    31    26   ar
    35     3    10    1
@<TRIPOS>MOLECULE
*****
 31 35 0 0 0
SMALL
GASTEIGER

@<TRIPOS>ATOM
      1 O         143.7172  136.4083  156.1672 O.2     1  UNL1       -0.2526
      2 C         142.2426  136.4710  156.4351 C.2     1  UNL1        0.3039
      3 N         141.3500  135.3534  155.9831 N.am    1  UNL1       -0.2901
      4 N         141.6606  137.6513  157.1550 N.am    1  UNL1       -0.2642
      5 C         142.5532  138.7689  157.6070 C.3     1  UNL1        0.0954
      6 C         141.9712  139.9491  158.3269 C.3     1  UNL1        0.0309
      7 C         140.4966  140.0118  158.5947 C.3     1  UNL1        0.0827
      8 C         139.6040  138.8943  158.1427 C.3     1  UNL1        0.0309
      9 C         140.1861  137.7139  157.4228 C.3     1  UNL1        0.0954
     10 H         140.3822  135.3946  156.1589 H       1  UNL1        0.1509
     11 C         141.9320  134.1731  155.2632 C.3     1  UNL1        0.0777
     12 C         141.6426  133.9660  153.8060 C.3     1  UNL1        0.0246
     13 C         142.2245  132.7858  153.0861 C.3     1  UNL1        0.0277
     14 C         143.0961  131.8126  153.8234 C.ar    1  UNL1       -0.0260
     15 C         143.6781  130.6324  153.1035 C.ar    1  UNL1       -0.0046
     16 C         144.5495  129.6593  153.8407 C.ar    1  UNL1       -0.0003
     17 C         144.8390  129.8664  155.2979 C.ar    1  UNL1       -0.0003
     18 C         144.2570  131.0466  156.0178 C.ar    1  UNL1       -0.0045
     19 C         143.3856  132.0197  155.2805 C.ar    1  UNL1       -0.0245
     20 C         142.8035  133.2000  156.0004 C.3     1  UNL1        0.0456
     21 C         139.9146  141.1921  159.3146 C.ar    1  UNL1        0.2362
     22 N         140.0156  141.4648  160.7861 N.ar    1  UNL1       -0.1895
     23 C         139.2929  142.7482  161.0704 C.ar    1  UNL1        0.2210
     24 N         138.7452  143.2686  159.7745 N.ar    1  UNL1       -0.0544
     25 O         139.1295  142.3069  158.6894 O.2     1  UNL1       -0.3370
     26 C         139.1440  143.3972  162.4145 C.ar    1  UNL1        0.1203
     27 C         137.8235  143.3565  163.1248 C.ar    1  UNL1        0.0224
     28 C         137.6744  144.0055  164.4689 C.ar    1  UNL1        0.0032
     29 C         138.8461  144.6952  165.1027 C.ar    1  UNL1        0.0207
     30 C         140.1667  144.7358  164.3924 C.ar    1  UNL1        0.0989
     31 N         140.3156  144.0868  163.0483 N.ar    1  UNL1       -0.2406
@<TRIPOS>BOND
     1     1     2    2
     2     2     3   am
     3     3    11    1
     4    11    12    1
     5    12    13    1
     6    13    14    1
     7    14    15   ar
     8    15    16   ar
     9    16    17   ar
    10    17    18   ar
    11    18    19   ar
    12    19    20    1
    13     2     4   am
    14     4     5    1
    15     5     6    1
    16     6     7    1
    17     7    21    1
    18    21    22   ar
    19    22    23   ar
    20    23    26    1
    21    26    27   ar
    22    27    28   ar
    23    28    29   ar
    24    29    30   ar
    25    30    31   ar
    26    23    24   ar
    27    24    25   ar
    28     7     8    1
    29     8     9    1
    30    20    11    1
    31     9     4    1
    32    19    14   ar
    33    25    21   ar
    34    31    26   ar
    35     3    10    1
@<TRIPOS>MOLECULE
*****
 31 35 0 0 0
SMALL
GASTEIGER

@<TRIPOS>ATOM
      1 O         141.8812  142.4992  163.7766 O.2     1  UNL1       -0.2526
      2 C         142.2115  141.1768  163.1501 C.2     1  UNL1        0.3039
      3 N         141.8891  139.9029  163.8734 N.am    1  UNL1       -0.2901
      4 N         142.8641  141.1285  161.8004 N.am    1  UNL1       -0.2642
      5 C         143.1865  142.4024  161.0772 C.3     1  UNL1        0.0954
      6 C         143.8391  142.3541  159.7275 C.3     1  UNL1        0.0309
      7 C         144.1694  141.0317  159.1010 C.3     1  UNL1        0.0827
      8 C         143.8471  139.7578  159.8243 C.3     1  UNL1        0.0309
      9 C         143.1944  139.8062  161.1740 C.3     1  UNL1        0.0954
     10 H         142.1059  139.0350  163.4623 H       1  UNL1        0.1509
     11 C         141.2364  139.9513  165.2231 C.3     1  UNL1        0.0777
     12 C         139.7412  140.0009  165.3318 C.3     1  UNL1        0.0246
     13 C         139.0885  140.0493  166.6815 C.3     1  UNL1        0.0277
     14 C         139.9311  140.0481  167.9226 C.ar    1  UNL1       -0.0260
     15 C         139.2784  140.0965  169.2722 C.ar    1  UNL1       -0.0046
     16 C         140.1209  140.0953  170.5132 C.ar    1  UNL1       -0.0003
     17 C         141.6162  140.0457  170.4045 C.ar    1  UNL1       -0.0003
     18 C         142.2688  139.9973  169.0548 C.ar    1  UNL1       -0.0045
     19 C         141.4263  139.9985  167.8139 C.ar    1  UNL1       -0.0245
     20 C         142.0790  139.9501  166.4641 C.3     1  UNL1        0.0456
     21 C         144.8221  140.9834  157.7513 C.ar    1  UNL1        0.2362
     22 N         145.7548  142.0129  157.1857 N.ar    1  UNL1       -0.1895
     23 C         146.1658  141.5628  155.8151 C.ar    1  UNL1        0.2210
     24 N         145.4870  140.2551  155.5336 N.ar    1  UNL1       -0.0544
     25 O         144.6565  139.8970  156.7303 O.2     1  UNL1       -0.3370
     26 C         147.0928  142.2924  154.8886 C.ar    1  UNL1        0.1203
     27 C         148.4997  141.8074  154.7000 C.ar    1  UNL1        0.0224
     28 C         149.4267  142.5369  153.7735 C.ar    1  UNL1        0.0032
     29 C         148.9469  143.7515  153.0355 C.ar    1  UNL1        0.0207
     30 C         147.5400  144.2365  153.2241 C.ar    1  UNL1        0.0989
     31 N         146.6130  143.5069  154.1506 N.ar    1  UNL1       -0.2406
@<TRIPOS>BOND
     1     1     2    2
     2     2     3   am
     3     3    11    1
     4    11    12    1
     5    12    13    1
     6    13    14    1
     7    14    15   ar
     8    15    16   ar
     9    16    17   ar
    10    17    18   ar
    11    18    19   ar
    12    19    20    1
    13     2     4   am
    14     4     5    1
    15     5     6    1
    16     6     7    1
    17     7    21    1
    18    21    22   ar
    19    22    23   ar
    20    23    26    1
    21    26    27   ar
    22    27    28   ar
    23    28    29   ar
    24    29    30   ar
    25    30    31   ar
    26    23    24   ar
    27    24    25   ar
    28     7     8    1
    29     8     9    1
    30    20    11    1
    31     9     4    1
    32    19    14   ar
    33    25    21   ar
    34    31    26   ar
    35     3    10    1
@<TRIPOS>MOLECULE
*****
 31 35 0 0 0
SMALL
GASTEIGER

@<TRIPOS>ATOM
      1 O         140.5224  138.0821  158.3182 O.2     1  UNL1       -0.2526
      2 C         141.9386  138.2838  158.7696 C.2     1  UNL1        0.3039
      3 N         143.0709  137.7284  157.9577 N.am    1  UNL1       -0.2901
      4 N         142.2224  139.0409  160.0330 N.am    1  UNL1       -0.2642
      5 C         141.0901  139.5963  160.8450 C.3     1  UNL1        0.0954
      6 C         141.3739  140.3534  162.1084 C.3     1  UNL1        0.0309
      7 C         142.7901  140.5551  162.5599 C.3     1  UNL1        0.0827
      8 C         143.9224  139.9997  161.7479 C.3     1  UNL1        0.0309
      9 C         143.6386  139.2426  160.4844 C.3     1  UNL1        0.0954
     10 H         144.0004  137.8607  158.2539 H       1  UNL1        0.1509
     11 C         142.7871  136.9712  156.6942 C.3     1  UNL1        0.0777
     12 C         142.5756  137.7122  155.4073 C.3     1  UNL1        0.0246
     13 C         142.2918  136.9551  154.1439 C.3     1  UNL1        0.0277
     14 C         142.2193  135.4570  154.1674 C.ar    1  UNL1       -0.0260
     15 C         141.9354  134.6999  152.9040 C.ar    1  UNL1       -0.0046
     16 C         141.8630  133.2019  152.9275 C.ar    1  UNL1       -0.0003
     17 C         142.0744  132.4609  154.2145 C.ar    1  UNL1       -0.0003
     18 C         142.3583  133.2180  155.4779 C.ar    1  UNL1       -0.0045
     19 C         142.4307  134.7160  155.4543 C.ar    1  UNL1       -0.0245
     20 C         142.7146  135.4732  156.7178 C.3     1  UNL1        0.0456
     21 C         143.0739  141.3123  163.8232 C.ar    1  UNL1        0.2362
     22 N         142.2736  141.2450  165.0901 N.ar    1  UNL1       -0.1895
     23 C         142.9129  142.1607  166.0914 C.ar    1  UNL1        0.2210
     24 N         144.1085  142.7940  165.4434 N.ar    1  UNL1       -0.0544
     25 O         144.2079  142.2695  164.0416 O.2     1  UNL1       -0.3370
     26 C         142.4398  142.4011  167.4944 C.ar    1  UNL1        0.1203
     27 C         140.9716  142.5044  167.7835 C.ar    1  UNL1        0.0224
     28 C         140.4984  142.7448  169.1865 C.ar    1  UNL1        0.0032
     29 C         141.4936  142.8818  170.3005 C.ar    1  UNL1        0.0207
     30 C         142.9619  142.7784  170.0114 C.ar    1  UNL1        0.0989
     31 N         143.4350  142.5381  168.6084 N.ar    1  UNL1       -0.2406
@<TRIPOS>BOND
     1     1     2    2
     2     2     3   am
     3     3    11    1
     4    11    12    1
     5    12    13    1
     6    13    14    1
     7    14    15   ar
     8    15    16   ar
     9    16    17   ar
    10    17    18   ar
    11    18    19   ar
    12    19    20    1
    13     2     4   am
    14     4     5    1
    15     5     6    1
    16     6     7    1
    17     7    21    1
    18    21    22   ar
    19    22    23   ar
    20    23    26    1
    21    26    27   ar
    22    27    28   ar
    23    28    29   ar
    24    29    30   ar
    25    30    31   ar
    26    23    24   ar
    27    24    25   ar
    28     7     8    1
    29     8     9    1
    30    20    11    1
    31     9     4    1
    32    19    14   ar
    33    25    21   ar
    34    31    26   ar
    35     3    10    1
@<TRIPOS>MOLECULE
*****
 31 35 0 0 0
SMALL
GASTEIGER

@<TRIPOS>ATOM
      1 O         143.7399  141.9233  164.8712 O.2     1  UNL1       -0.2526
      2 C         142.7542  141.7529  163.7534 C.2     1  UNL1        0.3039
      3 N         141.3238  141.4203  164.0589 N.am    1  UNL1       -0.2901
      4 N         143.1990  141.9151  162.3301 N.am    1  UNL1       -0.2642
      5 C         144.6294  142.2477  162.0245 C.3     1  UNL1        0.0954
      6 C         145.0741  142.4099  160.6012 C.3     1  UNL1        0.0309
      7 C         144.0885  142.2396  159.4834 C.3     1  UNL1        0.0827
      8 C         142.6581  141.9070  159.7889 C.3     1  UNL1        0.0309
      9 C         142.2133  141.7448  161.2123 C.3     1  UNL1        0.0954
     10 H         140.6769  141.3085  163.3253 H       1  UNL1        0.1509
     11 C         140.8791  141.2581  165.4823 C.3     1  UNL1        0.0777
     12 C         140.3858  139.9270  165.9668 C.3     1  UNL1        0.0246
     13 C         139.9411  139.7647  167.3901 C.3     1  UNL1        0.0277
     14 C         139.9897  140.9336  168.3290 C.ar    1  UNL1       -0.0260
     15 C         139.5449  140.7714  169.7523 C.ar    1  UNL1       -0.0046
     16 C         139.5935  141.9402  170.6911 C.ar    1  UNL1       -0.0003
     17 C         140.0868  143.2714  170.2066 C.ar    1  UNL1       -0.0003
     18 C         140.5315  143.4336  168.7832 C.ar    1  UNL1       -0.0045
     19 C         140.4829  142.2647  167.8445 C.ar    1  UNL1       -0.0245
     20 C         140.9277  142.4270  166.4211 C.3     1  UNL1        0.0456
     21 C         144.5332  142.4018  158.0601 C.ar    1  UNL1        0.2362
     22 N         145.9535  142.4731  157.5829 N.ar    1  UNL1       -0.1895
     23 C         145.9339  142.6366  156.0919 C.ar    1  UNL1        0.2210
     24 N         144.5014  142.6662  155.6477 N.ar    1  UNL1       -0.0544
     25 O         143.6358  142.5211  156.8641 O.2     1  UNL1       -0.3370
     26 C         147.1357  142.7504  155.2016 C.ar    1  UNL1        0.1203
     27 C         148.3010  141.8254  155.3927 C.ar    1  UNL1        0.0224
     28 C         149.5028  141.9392  154.5023 C.ar    1  UNL1        0.0032
     29 C         149.5393  142.9780  153.4208 C.ar    1  UNL1        0.0207
     30 C         148.3740  143.9029  153.2297 C.ar    1  UNL1        0.0989
     31 N         147.1722  143.7891  154.1200 N.ar    1  UNL1       -0.2406
@<TRIPOS>BOND
     1     1     2    2
     2     2     3   am
     3     3    11    1
     4    11    12    1
     5    12    13    1
     6    13    14    1
     7    14    15   ar
     8    15    16   ar
     9    16    17   ar
    10    17    18   ar
    11    18    19   ar
    12    19    20    1
    13     2     4   am
    14     4     5    1
    15     5     6    1
    16     6     7    1
    17     7    21    1
    18    21    22   ar
    19    22    23   ar
    20    23    26    1
    21    26    27   ar
    22    27    28   ar
    23    28    29   ar
    24    29    30   ar
    25    30    31   ar
    26    23    24   ar
    27    24    25   ar
    28     7     8    1
    29     8     9    1
    30    20    11    1
    31     9     4    1
    32    19    14   ar
    33    25    21   ar
    34    31    26   ar
    35     3    10    1
@<TRIPOS>MOLECULE
*****
 31 35 0 0 0
SMALL
GASTEIGER

@<TRIPOS>ATOM
      1 O         142.1968  145.8152  158.6893 O.2     1  UNL1       -0.2526
      2 C         140.9913  144.9363  158.8457 C.2     1  UNL1        0.3039
      3 N         140.0335  144.7669  157.7038 N.am    1  UNL1       -0.2901
      4 N         140.7437  144.2268  160.1438 N.am    1  UNL1       -0.2642
      5 C         141.7016  144.3961  161.2857 C.3     1  UNL1        0.0954
      6 C         141.4540  143.6866  162.5838 C.3     1  UNL1        0.0309
      7 C         140.2485  142.8076  162.7402 C.3     1  UNL1        0.0827
      8 C         139.2906  142.6383  161.5983 C.3     1  UNL1        0.0309
      9 C         139.5383  143.3479  160.3001 C.3     1  UNL1        0.0954
     10 H         139.2423  144.1901  157.8064 H       1  UNL1        0.1509
     11 C         140.2811  145.4765  156.4056 C.3     1  UNL1        0.0777
     12 C         141.0891  144.8126  155.3303 C.3     1  UNL1        0.0246
     13 C         141.3368  145.5221  154.0321 C.3     1  UNL1        0.0277
     14 C         140.7764  146.8956  153.8093 C.ar    1  UNL1       -0.0260
     15 C         141.0241  147.6051  152.5111 C.ar    1  UNL1       -0.0046
     16 C         140.4638  148.9786  152.2883 C.ar    1  UNL1       -0.0003
     17 C         139.6558  149.6425  153.3637 C.ar    1  UNL1       -0.0003
     18 C         139.4082  148.9330  154.6618 C.ar    1  UNL1       -0.0045
     19 C         139.9685  147.5595  154.8846 C.ar    1  UNL1       -0.0245
     20 C         139.7208  146.8500  156.1828 C.3     1  UNL1        0.0456
     21 C         140.0009  142.0981  164.0383 C.ar    1  UNL1        0.2362
     22 N         140.4183  142.5756  165.3976 N.ar    1  UNL1       -0.1895
     23 C         139.9678  141.5592  166.4045 C.ar    1  UNL1        0.2210
     24 N         139.2719  140.4534  165.6675 N.ar    1  UNL1       -0.0544
     25 O         139.2924  140.7865  164.2051 O.2     1  UNL1       -0.3370
     26 C         140.1764  141.6351  167.8880 C.ar    1  UNL1        0.1203
     27 C         140.5483  142.9401  168.5273 C.ar    1  UNL1        0.0224
     28 C         140.7570  143.0161  170.0107 C.ar    1  UNL1        0.0032
     29 C         140.5938  141.7869  170.8550 C.ar    1  UNL1        0.0207
     30 C         140.2219  140.4819  170.2157 C.ar    1  UNL1        0.0989
     31 N         140.0132  140.4060  168.7322 N.ar    1  UNL1       -0.2406
@<TRIPOS>BOND
     1     1     2    2
     2     2     3   am
     3     3    11    1
     4    11    12    1
     5    12    13    1
     6    13    14    1
     7    14    15   ar
     8    15    16   ar
     9    16    17   ar
    10    17    18   ar
    11    18    19   ar
    12    19    20    1
    13     2     4   am
    14     4     5    1
    15     5     6    1
    16     6     7    1
    17     7    21    1
    18    21    22   ar
    19    22    23   ar
    20    23    26    1
    21    26    27   ar
    22    27    28   ar
    23    28    29   ar
    24    29    30   ar
    25    30    31   ar
    26    23    24   ar
    27    24    25   ar
    28     7     8    1
    29     8     9    1
    30    20    11    1
    31     9     4    1
    32    19    14   ar
    33    25    21   ar
    34    31    26   ar
    35     3    10    1
@<TRIPOS>MOLECULE
*****
 31 35 0 0 0
SMALL
GASTEIGER

@<TRIPOS>ATOM
      1 O         141.6708  140.9287  163.5514 O.2     1  UNL1       -0.2526
      2 C         141.2592  142.3684  163.4619 C.2     1  UNL1        0.3039
      3 N         141.1688  143.2012  164.7062 N.am    1  UNL1       -0.2901
      4 N         140.9382  142.9751  162.1283 N.am    1  UNL1       -0.2642
      5 C         141.0287  142.1423  160.8840 C.3     1  UNL1        0.0954
      6 C         140.7076  142.7490  159.5504 C.3     1  UNL1        0.0309
      7 C         140.2960  144.1887  159.4609 C.3     1  UNL1        0.0827
      8 C         140.2055  145.0216  160.7051 C.3     1  UNL1        0.0309
      9 C         140.5266  144.4148  162.0389 C.3     1  UNL1        0.0954
     10 H         140.8986  144.1461  164.6475 H       1  UNL1        0.1509
     11 C         141.4899  142.5944  166.0399 C.3     1  UNL1        0.0777
     12 C         142.9099  142.5495  166.5211 C.3     1  UNL1        0.0246
     13 C         143.2310  141.9427  167.8547 C.3     1  UNL1        0.0277
     14 C         142.1321  141.3807  168.7072 C.ar    1  UNL1       -0.0260
     15 C         142.4532  140.7739  170.0409 C.ar    1  UNL1       -0.0046
     16 C         141.3543  140.2121  170.8933 C.ar    1  UNL1       -0.0003
     17 C         139.9343  140.2570  170.4121 C.ar    1  UNL1       -0.0003
     18 C         139.6132  140.8638  169.0785 C.ar    1  UNL1       -0.0045
     19 C         140.7121  141.4257  168.2260 C.ar    1  UNL1       -0.0245
     20 C         140.3910  142.0325  166.8923 C.3     1  UNL1        0.0456
     21 C         139.9749  144.7955  158.1272 C.ar    1  UNL1        0.2362
     22 N         140.0040  146.2577  157.7939 N.ar    1  UNL1       -0.1895
     23 C         139.6154  146.4125  156.3534 C.ar    1  UNL1        0.2210
     24 N         139.3462  145.0460  155.7964 N.ar    1  UNL1       -0.0544
     25 O         139.5684  144.0466  156.8927 O.2     1  UNL1       -0.3370
     26 C         139.5139  147.7067  155.6018 C.ar    1  UNL1        0.1203
     27 C         140.0766  147.8151  154.2156 C.ar    1  UNL1        0.0224
     28 C         139.9751  149.1092  153.4639 C.ar    1  UNL1        0.0032
     29 C         139.3108  150.2950  154.0985 C.ar    1  UNL1        0.0207
     30 C         138.7480  150.1866  155.4847 C.ar    1  UNL1        0.0989
     31 N         138.8496  148.8924  156.2363 N.ar    1  UNL1       -0.2406
@<TRIPOS>BOND
     1     1     2    2
     2     2     3   am
     3     3    11    1
     4    11    12    1
     5    12    13    1
     6    13    14    1
     7    14    15   ar
     8    15    16   ar
     9    16    17   ar
    10    17    18   ar
    11    18    19   ar
    12    19    20    1
    13     2     4   am
    14     4     5    1
    15     5     6    1
    16     6     7    1
    17     7    21    1
    18    21    22   ar
    19    22    23   ar
    20    23    26    1
    21    26    27   ar
    22    27    28   ar
    23    28    29   ar
    24    29    30   ar
    25    30    31   ar
    26    23    24   ar
    27    24    25   ar
    28     7     8    1
    29     8     9    1
    30    20    11    1
    31     9     4    1
    32    19    14   ar
    33    25    21   ar
    34    31    26   ar
    35     3    10    1
@<TRIPOS>MOLECULE
*****
 31 35 0 0 0
SMALL
GASTEIGER

@<TRIPOS>ATOM
      1 O         142.9260  139.1805  164.9019 O.2     1  UNL1       -0.2526
      2 C         142.1939  139.9816  163.8664 C.2     1  UNL1        0.3039
      3 N         141.0009  140.8021  164.2581 N.am    1  UNL1       -0.2901
      4 N         142.6549  139.9622  162.4391 N.am    1  UNL1       -0.2642
      5 C         143.8479  139.1417  162.0474 C.3     1  UNL1        0.0954
      6 C         144.3089  139.1223  160.6201 C.3     1  UNL1        0.0309
      7 C         143.5769  139.9235  159.5846 C.3     1  UNL1        0.0827
      8 C         142.3839  140.7440  159.9763 C.3     1  UNL1        0.0309
      9 C         141.9229  140.7634  161.4036 C.3     1  UNL1        0.0954
     10 H         140.5205  141.3280  163.5785 H       1  UNL1        0.1509
     11 C         140.5399  140.8215  165.6854 C.3     1  UNL1        0.0777
     12 C         139.7817  139.6542  166.2446 C.3     1  UNL1        0.0246
     13 C         139.3207  139.6736  167.6718 C.3     1  UNL1        0.0277
     14 C         139.6179  140.8601  168.5400 C.ar    1  UNL1       -0.0260
     15 C         139.1570  140.8794  169.9673 C.ar    1  UNL1       -0.0046
     16 C         139.4542  142.0660  170.8354 C.ar    1  UNL1       -0.0003
     17 C         140.2125  143.2332  170.2763 C.ar    1  UNL1       -0.0003
     18 C         140.6735  143.2139  168.8490 C.ar    1  UNL1       -0.0045
     19 C         140.3762  142.0274  167.9809 C.ar    1  UNL1       -0.0245
     20 C         140.8372  142.0080  166.5536 C.3     1  UNL1        0.0456
     21 C         144.0379  139.9041  158.1573 C.ar    1  UNL1        0.2362
     22 N         144.8848  140.9470  157.4901 N.ar    1  UNL1       -0.1895
     23 C         145.1033  140.5259  156.0671 C.ar    1  UNL1        0.2210
     24 N         144.3914  139.2227  155.8548 N.ar    1  UNL1       -0.0544
     25 O         143.7329  138.8385  157.1466 O.2     1  UNL1       -0.3370
     26 C         145.8947  141.2762  155.0372 C.ar    1  UNL1        0.1203
     27 C         145.9737  140.7614  153.6305 C.ar    1  UNL1        0.0224
     28 C         146.7651  141.5117  152.6005 C.ar    1  UNL1        0.0032
     29 C         147.4776  142.7768  152.9774 C.ar    1  UNL1        0.0207
     30 C         147.3986  143.2916  154.3841 C.ar    1  UNL1        0.0989
     31 N         146.6072  142.5413  155.4140 N.ar    1  UNL1       -0.2406
@<TRIPOS>BOND
     1     1     2    2
     2     2     3   am
     3     3    11    1
     4    11    12    1
     5    12    13    1
     6    13    14    1
     7    14    15   ar
     8    15    16   ar
     9    16    17   ar
    10    17    18   ar
    11    18    19   ar
    12    19    20    1
    13     2     4   am
    14     4     5    1
    15     5     6    1
    16     6     7    1
    17     7    21    1
    18    21    22   ar
    19    22    23   ar
    20    23    26    1
    21    26    27   ar
    22    27    28   ar
    23    28    29   ar
    24    29    30   ar
    25    30    31   ar
    26    23    24   ar
    27    24    25   ar
    28     7     8    1
    29     8     9    1
    30    20    11    1
    31     9     4    1
    32    19    14   ar
    33    25    21   ar
    34    31    26   ar
    35     3    10    1
