@<TRIPOS>MOLECULE
*****
 36 40 0 0 0
SMALL
GASTEIGER

@<TRIPOS>ATOM
      1 C         142.6004  138.1172  163.3823 C.ar    1  UNL1        0.1551
      2 C         142.4971  137.9611  164.8706 C.ar    1  UNL1        0.0750
      3 C         143.5610  138.5327  165.7603 C.ar    1  UNL1        0.1415
      4 C         144.7280  139.2604  165.1617 C.ar    1  UNL1        0.0384
      5 C         144.8313  139.4165  163.6735 C.ar    1  UNL1        0.0209
      6 C         143.7675  138.8449  162.7837 C.ar    1  UNL1        0.0851
      7 C         140.0888  137.7627  162.8197 C.3     1  UNL1        0.2525
      8 O         141.5365  137.5456  162.4926 O.3     1  UNL1       -0.4701
      9 N         143.8708  139.0011  161.2955 N.pl3   1  UNL1       -0.2802
     10 H         144.3821  138.3471  160.7662 H       1  UNL1        0.1552
     11 C         143.1951  140.1536  160.6135 C.ar    1  UNL1        0.2208
     12 N         143.7752  140.7242  159.3534 N.ar    1  UNL1       -0.2111
     13 C         143.0995  141.8767  158.6714 C.ar    1  UNL1        0.1147
     14 C         141.8437  142.4587  159.2496 C.ar    1  UNL1        0.0960
     15 CL        141.1680  143.6112  158.5676 Cl      1  UNL1       -0.0790
     16 C         141.2636  141.8881  160.5098 C.ar    1  UNL1        0.1138
     17 N         141.9393  140.7356  161.1917 N.ar    1  UNL1       -0.2111
     18 C         140.0077  142.4700  161.0879 C.ar    1  UNL1        0.1031
     19 C         138.6531  142.4593  160.4438 C.ar    1  UNL1        0.1196
     20 N         137.6943  143.1476  161.3696 N.ar    1  UNL1       -0.2248
     21 C         138.4563  143.5836  162.5858 C.ar    1  UNL1        0.1479
     22 C         138.0330  144.3079  163.8292 C.ar    1  UNL1        0.0374
     23 C         139.0394  144.6134  164.8986 C.ar    1  UNL1        0.0046
     24 C         140.4693  144.1947  164.7245 C.ar    1  UNL1        0.0191
     25 C         140.8926  143.4704  163.4811 C.ar    1  UNL1        0.0815
     26 N         139.8861  143.1649  162.4117 N.ar    1  UNL1       -0.2874
     27 O         143.4576  138.3765  167.2485 O.3     1  UNL1       -0.4789
     28 C         142.7693  139.4284  168.0670 C.3     1  UNL1        0.1693
     29 C         142.4169  140.7487  167.4484 C.3     1  UNL1        0.0650
     30 C         141.7286  141.8005  168.2669 C.3     1  UNL1        0.0971
     31 N         141.3926  141.5321  169.7039 N.am    1  UNL1       -0.2793
     32 C         140.7043  142.5839  170.5223 C.2     1  UNL1        0.2261
     33 C         140.3519  143.9042  169.9037 C.3     1  UNL1        0.0948
     34 O         140.3684  142.3154  171.9593 O.2     1  UNL1       -0.2749
     35 C         141.7450  140.2118  170.3225 C.3     1  UNL1        0.0971
     36 C         142.4333  139.1599  169.5041 C.3     1  UNL1        0.0650
@<TRIPOS>BOND
     1     7     8    1
     2     8     1    1
     3     1     2   ar
     4     2     3   ar
     5     3    27    1
     6    27    28    1
     7    28    29    1
     8    29    30    1
     9    30    31    1
    10    31    32   am
    11    32    33    1
    12    32    34    2
    13    31    35    1
    14    35    36    1
    15     3     4   ar
    16     4     5   ar
    17     5     6   ar
    18     6     9    1
    19     9    11    1
    20    11    12   ar
    21    12    13   ar
    22    13    14   ar
    23    14    15    1
    24    14    16   ar
    25    16    18    1
    26    18    19   ar
    27    19    20   ar
    28    20    21   ar
    29    21    22   ar
    30    22    23   ar
    31    23    24   ar
    32    24    25   ar
    33    25    26   ar
    34    16    17   ar
    35     6     1   ar
    36    17    11   ar
    37    36    28    1
    38    26    18   ar
    39    26    21   ar
    40     9    10    1
@<TRIPOS>MOLECULE
*****
 36 40 0 0 0
SMALL
GASTEIGER

@<TRIPOS>ATOM
      1 C         138.1316  139.8017  163.4030 C.ar    1  UNL1        0.1551
      2 C         137.9631  139.9604  164.8851 C.ar    1  UNL1        0.0750
      3 C         138.4417  138.8840  165.8138 C.ar    1  UNL1        0.1415
      4 C         139.0886  137.6490  165.2605 C.ar    1  UNL1        0.0384
      5 C         139.2570  137.4904  163.7784 C.ar    1  UNL1        0.0209
      6 C         138.7785  138.5667  162.8497 C.ar    1  UNL1        0.0851
      7 C         137.6175  142.3051  162.9352 C.3     1  UNL1        0.2525
      8 O         137.6531  140.8781  162.4743 O.3     1  UNL1       -0.4701
      9 N         138.9469  138.4080  161.3677 N.pl3   1  UNL1       -0.2802
     10 H         138.3381  137.8215  160.8631 H       1  UNL1        0.1552
     11 C         140.0430  139.1428  160.6544 C.ar    1  UNL1        0.2208
     12 N         140.2096  138.9862  159.1719 N.ar    1  UNL1       -0.2111
     13 C         141.3056  139.7211  158.4587 C.ar    1  UNL1        0.1147
     14 C         142.2350  140.6125  159.2278 C.ar    1  UNL1        0.0960
     15 CL        143.3310  141.3473  158.5146 Cl      1  UNL1       -0.0790
     16 C         142.0683  140.7691  160.7104 C.ar    1  UNL1        0.1138
     17 N         140.9723  140.0342  161.4236 N.ar    1  UNL1       -0.2111
     18 C         142.9977  141.6605  161.4796 C.ar    1  UNL1        0.1031
     19 C         144.4721  141.4514  161.6599 C.ar    1  UNL1        0.1196
     20 N         145.0014  142.5792  162.4952 N.ar    1  UNL1       -0.2248
     21 C         143.8542  143.4853  162.8312 C.ar    1  UNL1        0.1479
     22 C         143.7773  144.7541  163.6276 C.ar    1  UNL1        0.0374
     23 C         142.4619  145.4551  163.7962 C.ar    1  UNL1        0.0046
     24 C         141.2235  144.8873  163.1685 C.ar    1  UNL1        0.0191
     25 C         141.3005  143.6185  162.3721 C.ar    1  UNL1        0.0815
     26 N         142.6158  142.9175  162.2034 N.ar    1  UNL1       -0.2874
     27 O         138.2732  139.0428  167.2958 O.3     1  UNL1       -0.4789
     28 C         139.2926  139.8055  168.0890 C.3     1  UNL1        0.1693
     29 C         140.6162  140.1513  167.4738 C.3     1  UNL1        0.0650
     30 C         141.6355  140.9141  168.2671 C.3     1  UNL1        0.0971
     31 N         141.3312  141.3310  169.6755 N.am    1  UNL1       -0.2793
     32 C         142.3506  142.0938  170.4687 C.2     1  UNL1        0.2261
     33 C         143.6742  142.4396  169.8535 C.3     1  UNL1        0.0948
     34 O         142.0462  142.5107  171.8770 O.2     1  UNL1       -0.2749
     35 C         140.0076  140.9852  170.2907 C.3     1  UNL1        0.0971
     36 C         138.9883  140.2225  169.4975 C.3     1  UNL1        0.0650
@<TRIPOS>BOND
     1     7     8    1
     2     8     1    1
     3     1     2   ar
     4     2     3   ar
     5     3    27    1
     6    27    28    1
     7    28    29    1
     8    29    30    1
     9    30    31    1
    10    31    32   am
    11    32    33    1
    12    32    34    2
    13    31    35    1
    14    35    36    1
    15     3     4   ar
    16     4     5   ar
    17     5     6   ar
    18     6     9    1
    19     9    11    1
    20    11    12   ar
    21    12    13   ar
    22    13    14   ar
    23    14    15    1
    24    14    16   ar
    25    16    18    1
    26    18    19   ar
    27    19    20   ar
    28    20    21   ar
    29    21    22   ar
    30    22    23   ar
    31    23    24   ar
    32    24    25   ar
    33    25    26   ar
    34    16    17   ar
    35     6     1   ar
    36    17    11   ar
    37    36    28    1
    38    26    18   ar
    39    26    21   ar
    40     9    10    1
@<TRIPOS>MOLECULE
*****
 36 40 0 0 0
SMALL
GASTEIGER

@<TRIPOS>ATOM
      1 C         137.7601  140.2604  163.4998 C.ar    1  UNL1        0.1551
      2 C         137.8454  140.1985  164.9962 C.ar    1  UNL1        0.0750
      3 C         138.4148  138.9827  165.6653 C.ar    1  UNL1        0.1415
      4 C         138.8989  137.8289  164.8381 C.ar    1  UNL1        0.0384
      5 C         138.8136  137.8908  163.3418 C.ar    1  UNL1        0.0209
      6 C         138.2442  139.1066  162.6726 C.ar    1  UNL1        0.0851
      7 C         137.9316  142.7792  162.8864 C.3     1  UNL1        0.2525
      8 O         137.1906  141.4762  162.8307 O.3     1  UNL1       -0.4701
      9 N         138.1589  139.1684  161.1764 N.pl3   1  UNL1       -0.2802
     10 H         137.3127  138.9518  160.7222 H       1  UNL1        0.1552
     11 C         139.3629  139.5603  160.3721 C.ar    1  UNL1        0.2208
     12 N         139.4776  139.1353  158.9381 N.ar    1  UNL1       -0.2111
     13 C         140.6816  139.5271  158.1338 C.ar    1  UNL1        0.1147
     14 C         141.7707  140.3440  158.7634 C.ar    1  UNL1        0.0960
     15 CL        142.9747  140.7359  157.9591 Cl      1  UNL1       -0.0790
     16 C         141.6560  140.7690  160.1974 C.ar    1  UNL1        0.1138
     17 N         140.4521  140.3771  161.0017 N.ar    1  UNL1       -0.2111
     18 C         142.7452  141.5859  160.8270 C.ar    1  UNL1        0.1031
     19 C         143.1238  142.9883  160.4530 C.ar    1  UNL1        0.1196
     20 N         144.2596  143.4128  161.3361 N.ar    1  UNL1       -0.2248
     21 C         144.5829  142.2729  162.2558 C.ar    1  UNL1        0.1479
     22 C         145.6086  142.1171  163.3391 C.ar    1  UNL1        0.0374
     23 C         145.6983  140.8322  164.1078 C.ar    1  UNL1        0.0046
     24 C         144.7623  139.7031  163.7932 C.ar    1  UNL1        0.0191
     25 C         143.7366  139.8588  162.7099 C.ar    1  UNL1        0.0815
     26 N         143.6469  141.1437  161.9412 N.ar    1  UNL1       -0.2874
     27 O         138.5000  138.9209  167.1616 O.3     1  UNL1       -0.4789
     28 C         139.5105  139.7563  167.8903 C.3     1  UNL1        0.1693
     29 C         140.8512  140.0208  167.2719 C.3     1  UNL1        0.0650
     30 C         141.8616  140.8563  168.0007 C.3     1  UNL1        0.0971
     31 N         141.5313  141.4272  169.3478 N.am    1  UNL1       -0.2793
     32 C         142.5418  142.2627  170.0766 C.2     1  UNL1        0.2261
     33 C         143.8825  142.5271  169.4582 C.3     1  UNL1        0.0948
     34 O         142.2114  142.8336  171.4237 O.2     1  UNL1       -0.2749
     35 C         140.1906  141.1628  169.9663 C.3     1  UNL1        0.0971
     36 C         139.1801  140.3274  169.2375 C.3     1  UNL1        0.0650
@<TRIPOS>BOND
     1     7     8    1
     2     8     1    1
     3     1     2   ar
     4     2     3   ar
     5     3    27    1
     6    27    28    1
     7    28    29    1
     8    29    30    1
     9    30    31    1
    10    31    32   am
    11    32    33    1
    12    32    34    2
    13    31    35    1
    14    35    36    1
    15     3     4   ar
    16     4     5   ar
    17     5     6   ar
    18     6     9    1
    19     9    11    1
    20    11    12   ar
    21    12    13   ar
    22    13    14   ar
    23    14    15    1
    24    14    16   ar
    25    16    18    1
    26    18    19   ar
    27    19    20   ar
    28    20    21   ar
    29    21    22   ar
    30    22    23   ar
    31    23    24   ar
    32    24    25   ar
    33    25    26   ar
    34    16    17   ar
    35     6     1   ar
    36    17    11   ar
    37    36    28    1
    38    26    18   ar
    39    26    21   ar
    40     9    10    1
@<TRIPOS>MOLECULE
*****
 36 40 0 0 0
SMALL
GASTEIGER

@<TRIPOS>ATOM
      1 C         143.5518  138.6911  163.0840 C.ar    1  UNL1        0.1551
      2 C         143.9672  138.9092  164.5088 C.ar    1  UNL1        0.0750
      3 C         143.1495  138.3308  165.6254 C.ar    1  UNL1        0.1415
      4 C         141.9163  137.5343  165.3173 C.ar    1  UNL1        0.0384
      5 C         141.5009  137.3163  163.8926 C.ar    1  UNL1        0.0209
      6 C         142.3186  137.8947  162.7759 C.ar    1  UNL1        0.0851
      7 C         144.0635  140.6427  161.4471 C.3     1  UNL1        0.2525
      8 O         144.3695  139.2695  161.9674 O.3     1  UNL1       -0.4701
      9 N         141.9031  137.6766  161.3512 N.pl3   1  UNL1       -0.2802
     10 H         142.2671  136.9158  160.8433 H       1  UNL1        0.1552
     11 C         140.9330  138.6175  160.7004 C.ar    1  UNL1        0.2208
     12 N         140.5114  138.3947  159.2782 N.ar    1  UNL1       -0.2111
     13 C         139.5414  139.3357  158.6274 C.ar    1  UNL1        0.1147
     14 C         138.9929  140.4994  159.3987 C.ar    1  UNL1        0.0960
     15 CL        138.0228  141.4403  158.7479 Cl      1  UNL1       -0.0790
     16 C         139.4145  140.7222  160.8210 C.ar    1  UNL1        0.1138
     17 N         140.3846  139.7812  161.4717 N.ar    1  UNL1       -0.2111
     18 C         138.8661  141.8859  161.5924 C.ar    1  UNL1        0.1031
     19 C         137.7222  141.8407  162.5616 C.ar    1  UNL1        0.1196
     20 N         137.5144  143.2260  163.0981 N.ar    1  UNL1       -0.2248
     21 C         138.5298  144.1273  162.4605 C.ar    1  UNL1        0.1479
     22 C         138.8017  145.5951  162.6070 C.ar    1  UNL1        0.0374
     23 C         139.9090  146.2346  161.8229 C.ar    1  UNL1        0.0046
     24 C         140.7444  145.4064  160.8923 C.ar    1  UNL1        0.0191
     25 C         140.4725  143.9385  160.7457 C.ar    1  UNL1        0.0815
     26 N         139.3652  143.2990  161.5298 N.ar    1  UNL1       -0.2874
     27 O         143.5650  138.5489  167.0501 O.3     1  UNL1       -0.4789
     28 C         142.8467  139.5594  167.8944 C.3     1  UNL1        0.1693
     29 C         142.5130  140.9080  167.3289 C.3     1  UNL1        0.0650
     30 C         141.7947  141.9185  168.1733 C.3     1  UNL1        0.0971
     31 N         141.4102  141.5805  169.5832 N.am    1  UNL1       -0.2793
     32 C         140.6919  142.5911  170.4275 C.2     1  UNL1        0.2261
     33 C         140.3581  143.9396  169.8620 C.3     1  UNL1        0.0948
     34 O         140.3075  142.2529  171.8374 O.2     1  UNL1       -0.2749
     35 C         141.7439  140.2319  170.1488 C.3     1  UNL1        0.0971
     36 C         142.4622  139.2214  169.3044 C.3     1  UNL1        0.0650
@<TRIPOS>BOND
     1     7     8    1
     2     8     1    1
     3     1     2   ar
     4     2     3   ar
     5     3    27    1
     6    27    28    1
     7    28    29    1
     8    29    30    1
     9    30    31    1
    10    31    32   am
    11    32    33    1
    12    32    34    2
    13    31    35    1
    14    35    36    1
    15     3     4   ar
    16     4     5   ar
    17     5     6   ar
    18     6     9    1
    19     9    11    1
    20    11    12   ar
    21    12    13   ar
    22    13    14   ar
    23    14    15    1
    24    14    16   ar
    25    16    18    1
    26    18    19   ar
    27    19    20   ar
    28    20    21   ar
    29    21    22   ar
    30    22    23   ar
    31    23    24   ar
    32    24    25   ar
    33    25    26   ar
    34    16    17   ar
    35     6     1   ar
    36    17    11   ar
    37    36    28    1
    38    26    18   ar
    39    26    21   ar
    40     9    10    1
@<TRIPOS>MOLECULE
*****
 36 40 0 0 0
SMALL
GASTEIGER

@<TRIPOS>ATOM
      1 C         137.6457  140.5091  163.2959 C.ar    1  UNL1        0.1551
      2 C         137.8928  140.3765  164.7695 C.ar    1  UNL1        0.0750
      3 C         138.5268  139.1312  165.3146 C.ar    1  UNL1        0.1415
      4 C         138.9137  138.0184  164.3862 C.ar    1  UNL1        0.0384
      5 C         138.6666  138.1509  162.9127 C.ar    1  UNL1        0.0209
      6 C         138.0326  139.3963  162.3675 C.ar    1  UNL1        0.0851
      7 C         137.8269  143.0038  162.5933 C.3     1  UNL1        0.2525
      8 O         137.0118  141.7545  162.7508 O.3     1  UNL1       -0.4701
      9 N         137.7856  139.5288  160.8939 N.pl3   1  UNL1       -0.2802
     10 H         137.0189  139.0703  160.4802 H       1  UNL1        0.1552
     11 C         138.7066  140.3599  160.0507 C.ar    1  UNL1        0.2208
     12 N         138.3232  140.7108  158.6437 N.ar    1  UNL1       -0.2111
     13 C         139.2442  141.5419  157.8005 C.ar    1  UNL1        0.1147
     14 C         140.5486  142.0221  158.3643 C.ar    1  UNL1        0.0960
     15 CL        141.4696  142.8532  157.5211 Cl      1  UNL1       -0.0790
     16 C         140.9320  141.6712  159.7715 C.ar    1  UNL1        0.1138
     17 N         140.0110  140.8401  160.6146 N.ar    1  UNL1       -0.2111
     18 C         142.2364  142.1514  160.3354 C.ar    1  UNL1        0.1031
     19 C         143.6017  141.7095  159.8987 C.ar    1  UNL1        0.1196
     20 N         144.6136  142.4428  160.7284 N.ar    1  UNL1       -0.2248
     21 C         143.8737  143.3379  161.6778 C.ar    1  UNL1        0.1479
     22 C         144.3479  144.2936  162.7322 C.ar    1  UNL1        0.0374
     23 C         143.3529  145.0692  163.5436 C.ar    1  UNL1        0.0046
     24 C         141.8837  144.8890  163.3007 C.ar    1  UNL1        0.0191
     25 C         141.4095  143.9333  162.2464 C.ar    1  UNL1        0.0815
     26 N         142.4045  143.1577  161.4349 N.ar    1  UNL1       -0.2874
     27 O         138.7738  138.9987  166.7882 O.3     1  UNL1       -0.4789
     28 C         139.7877  139.8762  167.4605 C.3     1  UNL1        0.1693
     29 C         139.5052  140.4428  168.8203 C.3     1  UNL1        0.0650
     30 C         140.5191  141.3204  169.4926 C.3     1  UNL1        0.0971
     31 N         141.8155  141.6313  168.8050 N.am    1  UNL1       -0.2793
     32 C         142.8294  142.5089  169.4773 C.2     1  UNL1        0.2261
     33 C         142.5469  143.0755  170.8372 C.3     1  UNL1        0.0948
     34 O         144.1257  142.8198  168.7897 O.2     1  UNL1       -0.2749
     35 C         142.0980  141.0647  167.4452 C.3     1  UNL1        0.0971
     36 C         141.0841  140.1872  166.7729 C.3     1  UNL1        0.0650
@<TRIPOS>BOND
     1     7     8    1
     2     8     1    1
     3     1     2   ar
     4     2     3   ar
     5     3    27    1
     6    27    28    1
     7    28    29    1
     8    29    30    1
     9    30    31    1
    10    31    32   am
    11    32    33    1
    12    32    34    2
    13    31    35    1
    14    35    36    1
    15     3     4   ar
    16     4     5   ar
    17     5     6   ar
    18     6     9    1
    19     9    11    1
    20    11    12   ar
    21    12    13   ar
    22    13    14   ar
    23    14    15    1
    24    14    16   ar
    25    16    18    1
    26    18    19   ar
    27    19    20   ar
    28    20    21   ar
    29    21    22   ar
    30    22    23   ar
    31    23    24   ar
    32    24    25   ar
    33    25    26   ar
    34    16    17   ar
    35     6     1   ar
    36    17    11   ar
    37    36    28    1
    38    26    18   ar
    39    26    21   ar
    40     9    10    1
@<TRIPOS>MOLECULE
*****
 36 40 0 0 0
SMALL
GASTEIGER

@<TRIPOS>ATOM
      1 C         138.0293  140.0711  163.5793 C.ar    1  UNL1        0.1551
      2 C         138.0543  140.1195  165.0784 C.ar    1  UNL1        0.0750
      3 C         138.5192  138.9263  165.8597 C.ar    1  UNL1        0.1415
      4 C         138.9590  137.6848  165.1419 C.ar    1  UNL1        0.0384
      5 C         138.9340  137.6365  163.6429 C.ar    1  UNL1        0.0209
      6 C         138.4692  138.8296  162.8616 C.ar    1  UNL1        0.0851
      7 C         138.1880  142.6072  163.0381 C.3     1  UNL1        0.2525
      8 O         137.5645  141.2642  162.7981 O.3     1  UNL1       -0.4701
      9 N         138.4442  138.7811  161.3626 N.pl3   1  UNL1       -0.2802
     10 H         137.6011  138.5935  160.8902 H       1  UNL1        0.1552
     11 C         139.7037  139.0187  160.5834 C.ar    1  UNL1        0.2208
     12 N         140.8456  139.7611  161.2117 N.ar    1  UNL1       -0.2111
     13 C         142.1051  139.9986  160.4325 C.ar    1  UNL1        0.1147
     14 C         142.2227  139.4937  159.0249 C.ar    1  UNL1        0.0960
     15 CL        143.4822  139.7312  158.2457 Cl      1  UNL1       -0.0790
     16 C         141.0807  138.7512  158.3965 C.ar    1  UNL1        0.1138
     17 N         139.8213  138.5137  159.1758 N.ar    1  UNL1       -0.2111
     18 C         141.1983  138.2463  156.9890 C.ar    1  UNL1        0.1031
     19 C         140.5269  138.8331  155.7828 C.ar    1  UNL1        0.1196
     20 N         140.9216  138.0154  154.5889 N.ar    1  UNL1       -0.2248
     21 C         141.8370  136.9232  155.0571 C.ar    1  UNL1        0.1479
     22 C         142.5369  135.8172  154.3245 C.ar    1  UNL1        0.0374
     23 C         143.4078  134.8539  155.0752 C.ar    1  UNL1        0.0046
     24 C         143.5788  134.9967  156.5585 C.ar    1  UNL1        0.0191
     25 C         142.8789  136.1027  157.2912 C.ar    1  UNL1        0.0815
     26 N         142.0080  137.0659  156.5405 N.ar    1  UNL1       -0.2874
     27 O         138.5442  138.9748  167.3586 O.3     1  UNL1       -0.4789
     28 C         139.5810  139.7968  168.0652 C.3     1  UNL1        0.1693
     29 C         140.9404  139.9741  167.4564 C.3     1  UNL1        0.0650
     30 C         141.9772  140.7961  168.1630 C.3     1  UNL1        0.0971
     31 N         141.6547  141.4408  169.4784 N.am    1  UNL1       -0.2793
     32 C         142.6916  142.2628  170.1850 C.2     1  UNL1        0.2261
     33 C         144.0509  142.4402  169.5761 C.3     1  UNL1        0.0948
     34 O         142.3690  142.9075  171.5004 O.2     1  UNL1       -0.2749
     35 C         140.2954  141.2635  170.0873 C.3     1  UNL1        0.0971
     36 C         139.2585  140.4415  169.3807 C.3     1  UNL1        0.0650
@<TRIPOS>BOND
     1     7     8    1
     2     8     1    1
     3     1     2   ar
     4     2     3   ar
     5     3    27    1
     6    27    28    1
     7    28    29    1
     8    29    30    1
     9    30    31    1
    10    31    32   am
    11    32    33    1
    12    32    34    2
    13    31    35    1
    14    35    36    1
    15     3     4   ar
    16     4     5   ar
    17     5     6   ar
    18     6     9    1
    19     9    11    1
    20    11    12   ar
    21    12    13   ar
    22    13    14   ar
    23    14    15    1
    24    14    16   ar
    25    16    18    1
    26    18    19   ar
    27    19    20   ar
    28    20    21   ar
    29    21    22   ar
    30    22    23   ar
    31    23    24   ar
    32    24    25   ar
    33    25    26   ar
    34    16    17   ar
    35     6     1   ar
    36    17    11   ar
    37    36    28    1
    38    26    18   ar
    39    26    21   ar
    40     9    10    1
@<TRIPOS>MOLECULE
*****
 36 40 0 0 0
SMALL
GASTEIGER

@<TRIPOS>ATOM
      1 C         144.8586  142.1931  162.9720 C.ar    1  UNL1        0.1551
      2 C         144.8148  142.1478  164.4708 C.ar    1  UNL1        0.0750
      3 C         144.3582  143.3490  165.2444 C.ar    1  UNL1        0.1415
      4 C         143.9453  144.5955  164.5194 C.ar    1  UNL1        0.0384
      5 C         143.9891  144.6408  163.0207 C.ar    1  UNL1        0.0209
      6 C         144.4457  143.4396  162.2470 C.ar    1  UNL1        0.0851
      7 C         144.3365  139.9121  161.8429 C.3     1  UNL1        0.2525
      8 O         145.3152  140.9918  162.1984 O.3     1  UNL1       -0.4701
      9 N         144.4894  143.4850  160.7483 N.pl3   1  UNL1       -0.2802
     10 H         145.3028  143.7956  160.2888 H       1  UNL1        0.1552
     11 C         143.2939  143.0571  159.9498 C.ar    1  UNL1        0.2208
     12 N         143.2897  143.2222  158.4589 N.ar    1  UNL1       -0.2111
     13 C         142.0942  142.7943  157.6603 C.ar    1  UNL1        0.1147
     14 C         140.9030  142.2013  158.3527 C.ar    1  UNL1        0.0960
     15 CL        139.7075  141.7734  157.5541 Cl      1  UNL1       -0.0790
     16 C         140.9072  142.0362  159.8436 C.ar    1  UNL1        0.1138
     17 N         142.1027  142.4641  160.6421 N.ar    1  UNL1       -0.2111
     18 C         139.7159  141.4433  160.5359 C.ar    1  UNL1        0.1031
     19 C         138.3533  142.0629  160.6323 C.ar    1  UNL1        0.1196
     20 N         137.4734  141.1291  161.4093 N.ar    1  UNL1       -0.2248
     21 C         138.2922  139.9324  161.7933 C.ar    1  UNL1        0.1479
     22 C         137.9549  138.6910  162.5646 C.ar    1  UNL1        0.0374
     23 C         139.0035  137.6438  162.7962 C.ar    1  UNL1        0.0046
     24 C         140.3895  137.8379  162.2564 C.ar    1  UNL1        0.0191
     25 C         140.7268  139.0793  161.4851 C.ar    1  UNL1        0.0815
     26 N         139.6782  140.1265  161.2535 N.ar    1  UNL1       -0.2874
     27 O         144.3145  143.3036  166.7430 O.3     1  UNL1       -0.4789
     28 C         143.2396  142.5220  167.4386 C.3     1  UNL1        0.1693
     29 C         143.3310  142.2705  168.9145 C.3     1  UNL1        0.0650
     30 C         142.2560  141.4889  169.6100 C.3     1  UNL1        0.0971
     31 N         141.0899  140.9587  168.8297 N.am    1  UNL1       -0.2793
     32 C         140.0151  140.1771  169.5252 C.2     1  UNL1        0.2261
     33 C         140.1064  139.9256  171.0012 C.3     1  UNL1        0.0948
     34 O         138.8490  139.6470  168.7448 O.2     1  UNL1       -0.2749
     35 C         140.9986  141.2102  167.3537 C.3     1  UNL1        0.0971
     36 C         142.0734  141.9918  166.6582 C.3     1  UNL1        0.0650
@<TRIPOS>BOND
     1     7     8    1
     2     8     1    1
     3     1     2   ar
     4     2     3   ar
     5     3    27    1
     6    27    28    1
     7    28    29    1
     8    29    30    1
     9    30    31    1
    10    31    32   am
    11    32    33    1
    12    32    34    2
    13    31    35    1
    14    35    36    1
    15     3     4   ar
    16     4     5   ar
    17     5     6   ar
    18     6     9    1
    19     9    11    1
    20    11    12   ar
    21    12    13   ar
    22    13    14   ar
    23    14    15    1
    24    14    16   ar
    25    16    18    1
    26    18    19   ar
    27    19    20   ar
    28    20    21   ar
    29    21    22   ar
    30    22    23   ar
    31    23    24   ar
    32    24    25   ar
    33    25    26   ar
    34    16    17   ar
    35     6     1   ar
    36    17    11   ar
    37    36    28    1
    38    26    18   ar
    39    26    21   ar
    40     9    10    1
@<TRIPOS>MOLECULE
*****
 36 40 0 0 0
SMALL
GASTEIGER

@<TRIPOS>ATOM
      1 C         144.1888  139.6545  163.0975 C.ar    1  UNL1        0.1551
      2 C         143.5175  139.4970  164.4297 C.ar    1  UNL1        0.0750
      3 C         142.3612  138.5533  164.5800 C.ar    1  UNL1        0.1415
      4 C         141.8763  137.7672  163.3981 C.ar    1  UNL1        0.0384
      5 C         142.5476  137.9247  162.0660 C.ar    1  UNL1        0.0209
      6 C         143.7039  138.8684  161.9157 C.ar    1  UNL1        0.0851
      7 C         145.4119  141.8417  163.7836 C.3     1  UNL1        0.2525
      8 O         145.3451  140.5982  162.9473 O.3     1  UNL1       -0.4701
      9 N         144.3751  139.0258  160.5836 N.pl3   1  UNL1       -0.2802
     10 H         145.0863  138.4008  160.3138 H       1  UNL1        0.1552
     11 C         143.9628  140.1356  159.6624 C.ar    1  UNL1        0.2208
     12 N         144.5140  140.1972  158.2687 N.ar    1  UNL1       -0.2111
     13 C         144.1017  141.3069  157.3476 C.ar    1  UNL1        0.1147
     14 C         143.1383  142.3550  157.8201 C.ar    1  UNL1        0.0960
     15 CL        142.7260  143.4647  156.8990 Cl      1  UNL1       -0.0790
     16 C         142.5871  142.2933  159.2139 C.ar    1  UNL1        0.1138
     17 N         142.9994  141.1836  160.1350 N.ar    1  UNL1       -0.2111
     18 C         141.6236  143.3414  159.6865 C.ar    1  UNL1        0.1031
     19 C         140.4403  143.8593  158.9240 C.ar    1  UNL1        0.1196
     20 N         139.7597  144.8936  159.7708 N.ar    1  UNL1       -0.2248
     21 C         140.5225  145.0150  161.0566 C.ar    1  UNL1        0.1479
     22 C         140.3170  145.8751  162.2682 C.ar    1  UNL1        0.0374
     23 C         141.2634  145.7759  163.4277 C.ar    1  UNL1        0.0046
     24 C         142.4154  144.8166  163.3756 C.ar    1  UNL1        0.0191
     25 C         142.6209  143.9565  162.1640 C.ar    1  UNL1        0.0815
     26 N         141.6745  144.0557  161.0045 N.ar    1  UNL1       -0.2874
     27 O         141.6900  138.3959  165.9121 O.3     1  UNL1       -0.4789
     28 C         141.6599  139.5439  166.8771 C.3     1  UNL1        0.1693
     29 C         140.5455  140.5460  166.8160 C.3     1  UNL1        0.0650
     30 C         140.5155  141.6940  167.7810 C.3     1  UNL1        0.0971
     31 N         141.5999  141.8399  168.8071 N.am    1  UNL1       -0.2793
     32 C         141.5699  142.9880  169.7720 C.2     1  UNL1        0.2261
     33 C         140.4554  143.9901  169.7110 C.3     1  UNL1        0.0948
     34 O         142.6543  143.1338  170.7980 O.2     1  UNL1       -0.2749
     35 C         142.7144  140.8378  168.8681 C.3     1  UNL1        0.0971
     36 C         142.7444  139.6898  167.9032 C.3     1  UNL1        0.0650
@<TRIPOS>BOND
     1     7     8    1
     2     8     1    1
     3     1     2   ar
     4     2     3   ar
     5     3    27    1
     6    27    28    1
     7    28    29    1
     8    29    30    1
     9    30    31    1
    10    31    32   am
    11    32    33    1
    12    32    34    2
    13    31    35    1
    14    35    36    1
    15     3     4   ar
    16     4     5   ar
    17     5     6   ar
    18     6     9    1
    19     9    11    1
    20    11    12   ar
    21    12    13   ar
    22    13    14   ar
    23    14    15    1
    24    14    16   ar
    25    16    18    1
    26    18    19   ar
    27    19    20   ar
    28    20    21   ar
    29    21    22   ar
    30    22    23   ar
    31    23    24   ar
    32    24    25   ar
    33    25    26   ar
    34    16    17   ar
    35     6     1   ar
    36    17    11   ar
    37    36    28    1
    38    26    18   ar
    39    26    21   ar
    40     9    10    1
@<TRIPOS>MOLECULE
*****
 36 40 0 0 0
SMALL
GASTEIGER

@<TRIPOS>ATOM
      1 C         140.9022  144.8634  159.9280 C.ar    1  UNL1        0.1551
      2 C         140.1451  144.7557  158.6374 C.ar    1  UNL1        0.0750
      3 C         140.6310  143.8350  157.5575 C.ar    1  UNL1        0.1415
      4 C         141.8738  143.0220  157.7681 C.ar    1  UNL1        0.0384
      5 C         142.6308  143.1297  159.0586 C.ar    1  UNL1        0.0209
      6 C         142.1450  144.0504  160.1386 C.ar    1  UNL1        0.0851
      7 C         139.5550  145.2529  162.1152 C.3     1  UNL1        0.2525
      8 O         140.4163  145.7842  161.0079 O.3     1  UNL1       -0.4701
      9 N         142.9020  144.1581  161.4290 N.pl3   1  UNL1       -0.2802
     10 H         143.0780  145.0425  161.8241 H       1  UNL1        0.1552
     11 C         143.3909  142.9184  162.1175 C.ar    1  UNL1        0.2208
     12 N         144.8068  142.8409  162.6067 N.ar    1  UNL1       -0.2111
     13 C         145.2957  141.6012  163.2952 C.ar    1  UNL1        0.1147
     14 C         144.3687  140.4389  163.4945 C.ar    1  UNL1        0.0960
     15 CL        144.8575  139.1992  164.1830 Cl      1  UNL1       -0.0790
     16 C         142.9527  140.5163  163.0053 C.ar    1  UNL1        0.1138
     17 N         142.4639  141.7561  162.3168 N.ar    1  UNL1       -0.2111
     18 C         142.0257  139.3540  163.2046 C.ar    1  UNL1        0.1031
     19 C         142.0698  138.0532  162.4591 C.ar    1  UNL1        0.1196
     20 N         140.9632  137.1837  162.9782 N.ar    1  UNL1       -0.2248
     21 C         140.2352  137.9472  164.0446 C.ar    1  UNL1        0.1479
     22 C         139.0593  137.5943  164.9063 C.ar    1  UNL1        0.0374
     23 C         138.5400  138.5828  165.9079 C.ar    1  UNL1        0.0046
     24 C         139.1967  139.9241  166.0478 C.ar    1  UNL1        0.0191
     25 C         140.3726  140.2770  165.1862 C.ar    1  UNL1        0.0815
     26 N         140.8919  139.2886  164.1846 N.ar    1  UNL1       -0.2874
     27 O         139.8740  143.7273  156.2671 O.3     1  UNL1       -0.4789
     28 C         138.5816  142.9675  156.2170 C.3     1  UNL1        0.1693
     29 C         137.5065  143.3789  155.2553 C.3     1  UNL1        0.0650
     30 C         136.2141  142.6190  155.2053 C.3     1  UNL1        0.0971
     31 N         135.9969  141.4477  156.1168 N.am    1  UNL1       -0.2793
     32 C         134.7046  140.6879  156.0666 C.2     1  UNL1        0.2261
     33 C         133.6294  141.0994  155.1050 C.3     1  UNL1        0.0948
     34 O         134.4875  139.5166  156.9781 O.2     1  UNL1       -0.2749
     35 C         137.0721  141.0363  157.0784 C.3     1  UNL1        0.0971
     36 C         138.3644  141.7961  157.1285 C.3     1  UNL1        0.0650
@<TRIPOS>BOND
     1     7     8    1
     2     8     1    1
     3     1     2   ar
     4     2     3   ar
     5     3    27    1
     6    27    28    1
     7    28    29    1
     8    29    30    1
     9    30    31    1
    10    31    32   am
    11    32    33    1
    12    32    34    2
    13    31    35    1
    14    35    36    1
    15     3     4   ar
    16     4     5   ar
    17     5     6   ar
    18     6     9    1
    19     9    11    1
    20    11    12   ar
    21    12    13   ar
    22    13    14   ar
    23    14    15    1
    24    14    16   ar
    25    16    18    1
    26    18    19   ar
    27    19    20   ar
    28    20    21   ar
    29    21    22   ar
    30    22    23   ar
    31    23    24   ar
    32    24    25   ar
    33    25    26   ar
    34    16    17   ar
    35     6     1   ar
    36    17    11   ar
    37    36    28    1
    38    26    18   ar
    39    26    21   ar
    40     9    10    1
