@<TRIPOS>MOLECULE
*****
 36 37 0 0 0
SMALL
GASTEIGER

@<TRIPOS>ATOM
      1 C         141.9796  145.2589  163.9346 C.3     1  UNL1        0.0427
      2 C         140.5888  145.3113  163.3752 C.3     1  UNL1        0.1971
      3 O         141.0534  146.2581  162.3087 O.3     1  UNL1       -0.3751
      4 H         140.6637  147.1332  162.4610 H       1  UNL1        0.2110
      5 C         140.1241  144.3645  164.4418 C.2     1  UNL1        0.2539
      6 O         138.8279  144.6147  165.1540 O.2     1  UNL1       -0.2721
      7 N         140.9557  143.1674  164.7963 N.am    1  UNL1       -0.2819
      8 H         141.8065  143.0032  164.3289 H       1  UNL1        0.1549
      9 C         140.4911  142.2206  165.8628 C.ar    1  UNL1        0.0503
     10 C         139.9031  140.8937  165.4836 C.ar    1  UNL1        0.0185
     11 C         139.4385  139.9469  166.5501 C.ar    1  UNL1        0.0726
     12 C         139.5617  140.3269  167.9960 C.ar    1  UNL1        0.0078
     13 C         140.1496  141.6537  168.3752 C.ar    1  UNL1        0.0726
     14 C         140.6143  142.6006  167.3086 C.ar    1  UNL1        0.0185
     15 C         138.8505  138.6201  166.1709 C.3     1  UNL1        0.4186
     16 F         138.2626  137.2932  165.7915 F       1  UNL1       -0.1659
     17 F         137.5330  139.0373  166.7539 F       1  UNL1       -0.1659
     18 F         140.1682  138.2030  165.5878 F       1  UNL1       -0.1659
     19 C         140.2729  142.0337  169.8210 C.3     1  UNL1        0.4186
     20 F         140.3961  142.4137  171.2669 F       1  UNL1       -0.1659
     21 F         139.0301  141.2535  170.1321 F       1  UNL1       -0.1659
     22 F         141.5157  142.8139  169.5100 F       1  UNL1       -0.1659
     23 C         139.1979  145.3637  162.8159 C.3     1  UNL1        0.2408
     24 O         138.8287  144.5055  161.6424 O.3     1  UNL1       -0.4724
     25 C         138.7140  143.0190  161.8069 C.ar    1  UNL1        0.1387
     26 C         139.7523  142.1160  161.2098 C.ar    1  UNL1        0.0377
     27 C         139.6375  140.6295  161.3744 C.ar    1  UNL1        0.0181
     28 C         138.4845  140.0460  162.1359 C.ar    1  UNL1        0.1230
     29 C         137.4462  140.9489  162.7330 C.ar    1  UNL1        0.0181
     30 C         137.5609  142.4354  162.5684 C.ar    1  UNL1        0.0377
     31 S         138.3698  138.5594  162.3004 S.3     1  UNL1        0.3127
     32 F         137.2732  139.3257  161.6219 F       1  UNL1       -0.0934
     33 F         137.1586  137.8392  161.7865 F       1  UNL1       -0.0934
     34 F         139.4663  137.7931  162.9789 F       1  UNL1       -0.0934
     35 F         138.2551  137.0729  162.4650 F       1  UNL1       -0.0934
     36 F         139.5810  139.2797  162.8144 F       1  UNL1       -0.0934
@<TRIPOS>BOND
     1     1     2    1
     2     2     3    1
     3     2    23    1
     4    23    24    1
     5    24    25    1
     6    25    26   ar
     7    26    27   ar
     8    27    28   ar
     9    28    31    1
    10    31    32    1
    11    31    33    1
    12    31    34    1
    13    31    35    1
    14    31    36    1
    15    28    29   ar
    16    29    30   ar
    17     2     5    1
    18     5     6    2
    19     5     7   am
    20     7     9    1
    21     9    10   ar
    22    10    11   ar
    23    11    15    1
    24    15    16    1
    25    15    17    1
    26    15    18    1
    27    11    12   ar
    28    12    13   ar
    29    13    19    1
    30    19    20    1
    31    19    21    1
    32    19    22    1
    33    13    14   ar
    34    30    25   ar
    35    14     9   ar
    36     3     4    1
    37     7     8    1
@<TRIPOS>MOLECULE
*****
 36 37 0 0 0
SMALL
GASTEIGER

@<TRIPOS>ATOM
      1 C         141.9897  145.1826  163.9699 C.3     1  UNL1        0.0427
      2 C         140.6048  145.2602  163.3992 C.3     1  UNL1        0.1971
      3 O         141.0906  146.2162  162.3503 O.3     1  UNL1       -0.3751
      4 H         140.7103  147.0938  162.5117 H       1  UNL1        0.2110
      5 C         140.1190  144.3043  164.4480 C.2     1  UNL1        0.2539
      6 O         138.7716  144.5021  165.0768 O.2     1  UNL1       -0.2721
      7 N         140.9805  143.1504  164.8681 N.am    1  UNL1       -0.2819
      8 H         141.8649  143.0206  164.4554 H       1  UNL1        0.1549
      9 C         140.4947  142.1945  165.9169 C.ar    1  UNL1        0.0503
     10 C         140.5988  142.5575  167.3687 C.ar    1  UNL1        0.0185
     11 C         140.1129  141.6016  168.4175 C.ar    1  UNL1        0.0726
     12 C         139.5230  140.2826  168.0147 C.ar    1  UNL1        0.0078
     13 C         139.4189  139.9196  166.5631 C.ar    1  UNL1        0.0726
     14 C         139.9048  140.8755  165.5141 C.ar    1  UNL1        0.0185
     15 C         140.2170  141.9647  169.8691 C.3     1  UNL1        0.4186
     16 F         140.3212  142.3278  171.3209 F       1  UNL1       -0.1659
     17 F         138.9314  141.2419  170.1421 F       1  UNL1       -0.1659
     18 F         141.5028  142.6875  169.5961 F       1  UNL1       -0.1659
     19 C         138.8290  138.6006  166.1603 C.3     1  UNL1        0.4186
     20 F         138.2391  137.2816  165.7575 F       1  UNL1       -0.1659
     21 F         140.1613  138.1687  165.6233 F       1  UNL1       -0.1659
     22 F         137.4967  139.0325  166.6973 F       1  UNL1       -0.1659
     23 C         139.2197  145.3378  162.8284 C.3     1  UNL1        0.2408
     24 O         138.8365  144.4670  161.6688 O.3     1  UNL1       -0.4724
     25 C         138.7620  142.9787  161.8409 C.ar    1  UNL1        0.1387
     26 C         137.5962  142.3640  162.5571 C.ar    1  UNL1        0.0377
     27 C         137.5217  140.8758  162.7292 C.ar    1  UNL1        0.0181
     28 C         138.6131  140.0023  162.1851 C.ar    1  UNL1        0.1230
     29 C         139.7789  140.6170  161.4689 C.ar    1  UNL1        0.0181
     30 C         139.8534  142.1052  161.2968 C.ar    1  UNL1        0.0377
     31 S         138.5385  138.5140  162.3572 S.3     1  UNL1        0.3127
     32 F         137.3861  139.2573  161.7495 F       1  UNL1       -0.0934
     33 F         137.3116  137.7691  161.9217 F       1  UNL1       -0.0934
     34 F         139.6910  137.7707  162.9649 F       1  UNL1       -0.0934
     35 F         138.4641  137.0258  162.5294 F       1  UNL1       -0.0934
     36 F         139.7655  139.2590  162.7928 F       1  UNL1       -0.0934
@<TRIPOS>BOND
     1     1     2    1
     2     2     3    1
     3     2    23    1
     4    23    24    1
     5    24    25    1
     6    25    26   ar
     7    26    27   ar
     8    27    28   ar
     9    28    31    1
    10    31    32    1
    11    31    33    1
    12    31    34    1
    13    31    35    1
    14    31    36    1
    15    28    29   ar
    16    29    30   ar
    17     2     5    1
    18     5     6    2
    19     5     7   am
    20     7     9    1
    21     9    10   ar
    22    10    11   ar
    23    11    15    1
    24    15    16    1
    25    15    17    1
    26    15    18    1
    27    11    12   ar
    28    12    13   ar
    29    13    19    1
    30    19    20    1
    31    19    21    1
    32    19    22    1
    33    13    14   ar
    34    30    25   ar
    35    14     9   ar
    36     3     4    1
    37     7     8    1
@<TRIPOS>MOLECULE
*****
 36 37 0 0 0
SMALL
GASTEIGER

@<TRIPOS>ATOM
      1 C         143.5761  140.4030  159.3306 C.3     1  UNL1        0.0427
      2 C         143.1784  139.1724  160.0904 C.3     1  UNL1        0.1971
      3 O         143.4371  138.3366  158.8721 O.3     1  UNL1       -0.3751
      4 H         142.5967  137.9904  158.5331 H       1  UNL1        0.2110
      5 C         142.9197  140.0083  161.3087 C.2     1  UNL1        0.2539
      6 O         141.8491  141.0587  161.2842 O.2     1  UNL1       -0.2721
      7 N         143.7316  139.7938  162.5517 N.am    1  UNL1       -0.2819
      8 H         144.4342  139.1044  162.5678 H       1  UNL1        0.1549
      9 C         143.4729  140.6296  163.7700 C.ar    1  UNL1        0.0503
     10 C         142.7756  140.0314  164.9558 C.ar    1  UNL1        0.0185
     11 C         142.5169  140.8673  166.1742 C.ar    1  UNL1        0.0726
     12 C         142.9554  142.3014  166.2068 C.ar    1  UNL1        0.0078
     13 C         143.6526  142.8996  165.0211 C.ar    1  UNL1        0.0726
     14 C         143.9114  142.0637  163.8027 C.ar    1  UNL1        0.0185
     15 C         141.8197  140.2690  167.3599 C.3     1  UNL1        0.4186
     16 F         141.1225  139.6707  168.5456 F       1  UNL1       -0.1659
     17 F         141.0773  141.5549  167.5721 F       1  UNL1       -0.1659
     18 F         142.5623  138.9830  167.1476 F       1  UNL1       -0.1659
     19 C         144.0912  144.3337  165.0537 C.3     1  UNL1        0.4186
     20 F         144.5297  145.7678  165.0863 F       1  UNL1       -0.1659
     21 F         145.1636  143.9833  166.0422 F       1  UNL1       -0.1659
     22 F         143.0187  144.6841  164.0652 F       1  UNL1       -0.1659
     23 C         142.7806  137.9418  160.8503 C.3     1  UNL1        0.2408
     24 O         141.3324  137.5710  160.9722 O.3     1  UNL1       -0.4724
     25 C         140.6063  137.7980  162.2651 C.ar    1  UNL1        0.1387
     26 C         141.0993  137.1516  163.5257 C.ar    1  UNL1        0.0377
     27 C         140.3732  137.3787  164.8184 C.ar    1  UNL1        0.0181
     28 C         139.1541  138.2521  164.8506 C.ar    1  UNL1        0.1230
     29 C         138.6611  138.8984  163.5900 C.ar    1  UNL1        0.0181
     30 C         139.3872  138.6714  162.2972 C.ar    1  UNL1        0.0377
     31 S         138.4281  138.4791  166.1434 S.3     1  UNL1        0.3127
     32 F         139.2462  139.5816  165.5391 F       1  UNL1       -0.0934
     33 F         138.5201  139.8085  166.8319 F       1  UNL1       -0.0934
     34 F         137.6099  137.3766  166.7477 F       1  UNL1       -0.0934
     35 F         137.7020  138.7060  167.4362 F       1  UNL1       -0.0934
     36 F         138.3360  137.1495  165.4549 F       1  UNL1       -0.0934
@<TRIPOS>BOND
     1     1     2    1
     2     2     3    1
     3     2    23    1
     4    23    24    1
     5    24    25    1
     6    25    26   ar
     7    26    27   ar
     8    27    28   ar
     9    28    31    1
    10    31    32    1
    11    31    33    1
    12    31    34    1
    13    31    35    1
    14    31    36    1
    15    28    29   ar
    16    29    30   ar
    17     2     5    1
    18     5     6    2
    19     5     7   am
    20     7     9    1
    21     9    10   ar
    22    10    11   ar
    23    11    15    1
    24    15    16    1
    25    15    17    1
    26    15    18    1
    27    11    12   ar
    28    12    13   ar
    29    13    19    1
    30    19    20    1
    31    19    21    1
    32    19    22    1
    33    13    14   ar
    34    30    25   ar
    35    14     9   ar
    36     3     4    1
    37     7     8    1
@<TRIPOS>MOLECULE
*****
 36 37 0 0 0
SMALL
GASTEIGER

@<TRIPOS>ATOM
      1 C         143.9146  144.5011  162.5572 C.3     1  UNL1        0.0427
      2 C         144.4380  143.1154  162.7935 C.3     1  UNL1        0.1971
      3 O         145.3011  143.2332  161.5724 O.3     1  UNL1       -0.3751
      4 H         144.9747  142.6301  160.8863 H       1  UNL1        0.2110
      5 C         143.5749  142.9976  164.0146 C.2     1  UNL1        0.2539
      6 O         142.4894  144.0019  164.2655 O.2     1  UNL1       -0.2721
      7 N         143.7974  141.8755  164.9849 N.am    1  UNL1       -0.2819
      8 H         144.5099  141.2163  164.8203 H       1  UNL1        0.1549
      9 C         142.9343  141.7577  166.2060 C.ar    1  UNL1        0.0503
     10 C         143.3519  142.4186  167.4862 C.ar    1  UNL1        0.0185
     11 C         142.4888  142.3008  168.7073 C.ar    1  UNL1        0.0726
     12 C         141.2081  141.5221  168.6483 C.ar    1  UNL1        0.0078
     13 C         140.7905  140.8612  167.3682 C.ar    1  UNL1        0.0726
     14 C         141.6536  140.9790  166.1470 C.ar    1  UNL1        0.0185
     15 C         142.9064  142.9616  169.9875 C.3     1  UNL1        0.4186
     16 F         143.3241  143.6225  171.2677 F       1  UNL1       -0.1659
     17 F         141.6101  143.7156  170.0211 F       1  UNL1       -0.1659
     18 F         144.2027  142.2076  169.9538 F       1  UNL1       -0.1659
     19 C         139.5098  140.0825  167.3092 C.3     1  UNL1        0.4186
     20 F         138.2292  139.3038  167.2501 F       1  UNL1       -0.1659
     21 F         139.2765  140.5723  165.9107 F       1  UNL1       -0.1659
     22 F         139.7432  139.5927  168.7076 F       1  UNL1       -0.1659
     23 C         144.9615  141.7296  163.0298 C.3     1  UNL1        0.2408
     24 O         144.4392  140.5820  162.2175 O.3     1  UNL1       -0.4724
     25 C         143.1972  139.8606  162.6502 C.ar    1  UNL1        0.1387
     26 C         143.2996  138.6626  163.5469 C.ar    1  UNL1        0.0377
     27 C         142.0576  137.9413  163.9796 C.ar    1  UNL1        0.0181
     28 C         140.7133  138.4180  163.5155 C.ar    1  UNL1        0.1230
     29 C         140.6109  139.6160  162.6187 C.ar    1  UNL1        0.0181
     30 C         141.8528  140.3373  162.1861 C.ar    1  UNL1        0.0377
     31 S         139.4713  137.6967  163.9482 S.3     1  UNL1        0.3127
     32 F         140.5349  138.0275  164.9528 F       1  UNL1       -0.0934
     33 F         139.2930  137.3062  165.3854 F       1  UNL1       -0.0934
     34 F         138.4076  137.3659  162.9436 F       1  UNL1       -0.0934
     35 F         138.2293  136.9754  164.3808 F       1  UNL1       -0.0934
     36 F         139.6496  138.0872  162.5109 F       1  UNL1       -0.0934
@<TRIPOS>BOND
     1     1     2    1
     2     2     3    1
     3     2    23    1
     4    23    24    1
     5    24    25    1
     6    25    26   ar
     7    26    27   ar
     8    27    28   ar
     9    28    31    1
    10    31    32    1
    11    31    33    1
    12    31    34    1
    13    31    35    1
    14    31    36    1
    15    28    29   ar
    16    29    30   ar
    17     2     5    1
    18     5     6    2
    19     5     7   am
    20     7     9    1
    21     9    10   ar
    22    10    11   ar
    23    11    15    1
    24    15    16    1
    25    15    17    1
    26    15    18    1
    27    11    12   ar
    28    12    13   ar
    29    13    19    1
    30    19    20    1
    31    19    21    1
    32    19    22    1
    33    13    14   ar
    34    30    25   ar
    35    14     9   ar
    36     3     4    1
    37     7     8    1
@<TRIPOS>MOLECULE
*****
 36 37 0 0 0
SMALL
GASTEIGER

@<TRIPOS>ATOM
      1 C         138.0879  140.3714  160.2017 C.3     1  UNL1        0.0427
      2 C         138.4167  141.8006  160.5163 C.3     1  UNL1        0.1971
      3 O         138.5110  142.1017  159.0499 O.3     1  UNL1       -0.3751
      4 H         139.4333  142.2925  158.8177 H       1  UNL1        0.2110
      5 C         138.3223  141.4995  161.9827 C.2     1  UNL1        0.2539
      6 O         137.0465  141.7707  162.7235 O.2     1  UNL1       -0.2721
      7 N         139.5038  140.9272  162.7084 N.am    1  UNL1       -0.2819
      8 H         140.3412  140.7493  162.2222 H       1  UNL1        0.1549
      9 C         139.4095  140.6262  164.1748 C.ar    1  UNL1        0.0503
     10 C         138.7177  139.3797  164.6416 C.ar    1  UNL1        0.0185
     11 C         138.6234  139.0786  166.1080 C.ar    1  UNL1        0.0726
     12 C         139.2208  140.0239  167.1077 C.ar    1  UNL1        0.0078
     13 C         139.9126  141.2703  166.6410 C.ar    1  UNL1        0.0726
     14 C         140.0069  141.5715  165.1745 C.ar    1  UNL1        0.0185
     15 C         137.9316  137.8321  166.5747 C.3     1  UNL1        0.4186
     16 F         137.2398  136.5857  167.0414 F       1  UNL1       -0.1659
     17 F         138.5823  137.0566  165.4678 F       1  UNL1       -0.1659
     18 F         137.2810  138.6078  167.6816 F       1  UNL1       -0.1659
     19 C         140.5100  142.2157  167.6407 C.3     1  UNL1        0.4186
     20 F         141.1074  143.1610  168.6404 F       1  UNL1       -0.1659
     21 F         140.9570  143.1131  166.5250 F       1  UNL1       -0.1659
     22 F         140.0630  141.3182  168.7564 F       1  UNL1       -0.1659
     23 C         138.7454  143.2300  160.8310 C.3     1  UNL1        0.2408
     24 O         140.1306  143.7519  160.5885 O.3     1  UNL1       -0.4724
     25 C         141.1195  143.8063  161.7152 C.ar    1  UNL1        0.1387
     26 C         140.9274  144.7857  162.8350 C.ar    1  UNL1        0.0377
     27 C         141.9163  144.8401  163.9615 C.ar    1  UNL1        0.0181
     28 C         143.0971  143.9152  163.9683 C.ar    1  UNL1        0.1230
     29 C         143.2892  142.9358  162.8486 C.ar    1  UNL1        0.0181
     30 C         142.3004  142.8814  161.7220 C.ar    1  UNL1        0.0377
     31 S         144.0860  143.9697  165.0950 S.3     1  UNL1        0.3127
     32 F         143.3449  142.6974  164.8084 F       1  UNL1       -0.0934
     33 F         144.3337  142.7519  165.9350 F       1  UNL1       -0.0934
     34 F         144.8271  145.2419  165.3815 F       1  UNL1       -0.0934
     35 F         145.0748  144.0242  166.2216 F       1  UNL1       -0.0934
     36 F         143.8383  145.1874  164.2549 F       1  UNL1       -0.0934
@<TRIPOS>BOND
     1     1     2    1
     2     2     3    1
     3     2    23    1
     4    23    24    1
     5    24    25    1
     6    25    26   ar
     7    26    27   ar
     8    27    28   ar
     9    28    31    1
    10    31    32    1
    11    31    33    1
    12    31    34    1
    13    31    35    1
    14    31    36    1
    15    28    29   ar
    16    29    30   ar
    17     2     5    1
    18     5     6    2
    19     5     7   am
    20     7     9    1
    21     9    10   ar
    22    10    11   ar
    23    11    15    1
    24    15    16    1
    25    15    17    1
    26    15    18    1
    27    11    12   ar
    28    12    13   ar
    29    13    19    1
    30    19    20    1
    31    19    21    1
    32    19    22    1
    33    13    14   ar
    34    30    25   ar
    35    14     9   ar
    36     3     4    1
    37     7     8    1
@<TRIPOS>MOLECULE
*****
 36 37 0 0 0
SMALL
GASTEIGER

@<TRIPOS>ATOM
      1 C         145.1974  139.6843  164.2907 C.3     1  UNL1        0.0427
      2 C         143.8831  139.1300  163.8268 C.3     1  UNL1        0.1971
      3 O         144.4730  138.8632  162.4738 O.3     1  UNL1       -0.3751
      4 H         144.0697  139.4579  161.8222 H       1  UNL1        0.2110
      5 C         143.2931  139.3969  165.1799 C.2     1  UNL1        0.2539
      6 O         143.1346  138.2755  166.1634 O.2     1  UNL1       -0.2721
      7 N         142.8616  140.7852  165.5494 N.am    1  UNL1       -0.2819
      8 H         142.9656  141.5212  164.9039 H       1  UNL1        0.1549
      9 C         142.2716  141.0520  166.9024 C.ar    1  UNL1        0.0503
     10 C         140.9557  140.4395  167.2809 C.ar    1  UNL1        0.0185
     11 C         140.3657  140.7063  168.6339 C.ar    1  UNL1        0.0726
     12 C         141.0916  141.5857  169.6085 C.ar    1  UNL1        0.0078
     13 C         142.4074  142.1983  169.2300 C.ar    1  UNL1        0.0726
     14 C         142.9975  141.9314  167.8770 C.ar    1  UNL1        0.0185
     15 C         139.0498  140.0937  169.0123 C.3     1  UNL1        0.4186
     16 F         137.7339  139.4812  169.3909 F       1  UNL1       -0.1659
     17 F         138.9802  139.4174  167.6753 F       1  UNL1       -0.1659
     18 F         139.1195  140.7702  170.3494 F       1  UNL1       -0.1659
     19 C         143.1333  143.0777  170.2046 C.3     1  UNL1        0.4186
     20 F         143.8591  143.9571  171.1792 F       1  UNL1       -0.1659
     21 F         144.3729  142.2522  170.0261 F       1  UNL1       -0.1659
     22 F         141.8936  143.9031  170.3831 F       1  UNL1       -0.1659
     23 C         142.5686  138.5757  163.3631 C.3     1  UNL1        0.2408
     24 O         141.6743  139.4008  162.4859 O.3     1  UNL1       -0.4724
     25 C         140.8792  140.5284  163.0745 C.ar    1  UNL1        0.1387
     26 C         141.3131  141.9472  162.8539 C.ar    1  UNL1        0.0377
     27 C         140.5180  143.0747  163.4425 C.ar    1  UNL1        0.0181
     28 C         139.2891  142.7834  164.2517 C.ar    1  UNL1        0.1230
     29 C         138.8552  141.3646  164.4723 C.ar    1  UNL1        0.0181
     30 C         139.6503  140.2371  163.8837 C.ar    1  UNL1        0.0377
     31 S         138.4940  143.9111  164.8403 S.3     1  UNL1        0.3127
     32 F         138.0047  143.2125  163.6063 F       1  UNL1       -0.0934
     33 F         137.2097  144.3401  164.1949 F       1  UNL1       -0.0934
     34 F         138.9833  144.6096  166.0742 F       1  UNL1       -0.0934
     35 F         137.6990  145.0386  165.4289 F       1  UNL1       -0.0934
     36 F         139.7784  143.4820  165.4856 F       1  UNL1       -0.0934
@<TRIPOS>BOND
     1     1     2    1
     2     2     3    1
     3     2    23    1
     4    23    24    1
     5    24    25    1
     6    25    26   ar
     7    26    27   ar
     8    27    28   ar
     9    28    31    1
    10    31    32    1
    11    31    33    1
    12    31    34    1
    13    31    35    1
    14    31    36    1
    15    28    29   ar
    16    29    30   ar
    17     2     5    1
    18     5     6    2
    19     5     7   am
    20     7     9    1
    21     9    10   ar
    22    10    11   ar
    23    11    15    1
    24    15    16    1
    25    15    17    1
    26    15    18    1
    27    11    12   ar
    28    12    13   ar
    29    13    19    1
    30    19    20    1
    31    19    21    1
    32    19    22    1
    33    13    14   ar
    34    30    25   ar
    35    14     9   ar
    36     3     4    1
    37     7     8    1
@<TRIPOS>MOLECULE
*****
 36 37 0 0 0
SMALL
GASTEIGER

@<TRIPOS>ATOM
      1 C         139.8094  138.1217  161.4233 C.3     1  UNL1        0.0427
      2 C         139.2315  138.5320  162.7453 C.3     1  UNL1        0.1971
      3 O         138.5039  137.2233  162.8334 O.3     1  UNL1       -0.3751
      4 H         137.5499  137.3774  162.7489 H       1  UNL1        0.2110
      5 C         139.9591  139.8407  162.6571 C.2     1  UNL1        0.2539
      6 O         140.9657  140.0674  161.5684 O.2     1  UNL1       -0.2721
      7 N         139.6801  140.9229  163.6578 N.am    1  UNL1       -0.2819
      8 H         139.0195  140.7741  164.3724 H       1  UNL1        0.1549
      9 C         140.4077  142.2316  163.5696 C.ar    1  UNL1        0.0503
     10 C         139.8222  143.3635  162.7783 C.ar    1  UNL1        0.0185
     11 C         140.5498  144.6722  162.6901 C.ar    1  UNL1        0.0726
     12 C         141.8629  144.8491  163.3933 C.ar    1  UNL1        0.0078
     13 C         142.4484  143.7173  164.1846 C.ar    1  UNL1        0.0726
     14 C         141.7208  142.4085  164.2728 C.ar    1  UNL1        0.0185
     15 C         139.9643  145.8039  161.8988 C.3     1  UNL1        0.4186
     16 F         139.3787  146.9358  161.1075 F       1  UNL1       -0.1659
     17 F         141.1197  145.7346  160.9448 F       1  UNL1       -0.1659
     18 F         138.8089  145.8732  162.8529 F       1  UNL1       -0.1659
     19 C         143.7615  143.8943  164.8878 C.3     1  UNL1        0.4186
     20 F         145.0746  144.0712  165.5909 F       1  UNL1       -0.1659
     21 F         143.7739  145.3433  164.5001 F       1  UNL1       -0.1659
     22 F         143.7492  142.4453  165.2754 F       1  UNL1       -0.1659
     23 C         138.6536  138.9424  164.0673 C.3     1  UNL1        0.2408
     24 O         139.1652  138.3234  165.3341 O.3     1  UNL1       -0.4724
     25 C         140.1156  139.0845  166.2103 C.ar    1  UNL1        0.1387
     26 C         139.5876  139.9457  167.3190 C.ar    1  UNL1        0.0377
     27 C         140.5380  140.7068  168.1950 C.ar    1  UNL1        0.0181
     28 C         142.0165  140.6066  167.9623 C.ar    1  UNL1        0.1230
     29 C         142.5445  139.7453  166.8536 C.ar    1  UNL1        0.0181
     30 C         141.5941  138.9843  165.9776 C.ar    1  UNL1        0.0377
     31 S         142.9669  141.3677  168.8385 S.3     1  UNL1        0.3127
     32 F         142.3700  142.0260  167.6300 F       1  UNL1       -0.0934
     33 F         143.3204  142.7870  168.5061 F       1  UNL1       -0.0934
     34 F         143.5638  140.7094  170.0469 F       1  UNL1       -0.0934
     35 F         143.9173  142.1287  169.7146 F       1  UNL1       -0.0934
     36 F         142.6133  139.9483  169.1708 F       1  UNL1       -0.0934
@<TRIPOS>BOND
     1     1     2    1
     2     2     3    1
     3     2    23    1
     4    23    24    1
     5    24    25    1
     6    25    26   ar
     7    26    27   ar
     8    27    28   ar
     9    28    31    1
    10    31    32    1
    11    31    33    1
    12    31    34    1
    13    31    35    1
    14    31    36    1
    15    28    29   ar
    16    29    30   ar
    17     2     5    1
    18     5     6    2
    19     5     7   am
    20     7     9    1
    21     9    10   ar
    22    10    11   ar
    23    11    15    1
    24    15    16    1
    25    15    17    1
    26    15    18    1
    27    11    12   ar
    28    12    13   ar
    29    13    19    1
    30    19    20    1
    31    19    21    1
    32    19    22    1
    33    13    14   ar
    34    30    25   ar
    35    14     9   ar
    36     3     4    1
    37     7     8    1
@<TRIPOS>MOLECULE
*****
 36 37 0 0 0
SMALL
GASTEIGER

@<TRIPOS>ATOM
      1 C         143.6571  140.8327  159.1985 C.3     1  UNL1        0.0427
      2 C         143.3065  139.5849  159.9535 C.3     1  UNL1        0.1971
      3 O         143.5846  138.7655  158.7283 O.3     1  UNL1       -0.3751
      4 H         142.7541  138.3931  158.3930 H       1  UNL1        0.2110
      5 C         143.0284  140.4044  161.1786 C.2     1  UNL1        0.2539
      6 O         142.1564  141.6213  161.0850 O.2     1  UNL1       -0.2721
      7 N         143.6224  140.0070  162.4975 N.am    1  UNL1       -0.2819
      8 H         144.1947  139.2083  162.5590 H       1  UNL1        0.1549
      9 C         143.3443  140.8265  163.7227 C.ar    1  UNL1        0.0503
     10 C         143.8455  142.2375  163.8109 C.ar    1  UNL1        0.0185
     11 C         143.5674  143.0570  165.0361 C.ar    1  UNL1        0.0726
     12 C         142.7881  142.4655  166.1731 C.ar    1  UNL1        0.0078
     13 C         142.2868  141.0545  166.0849 C.ar    1  UNL1        0.0726
     14 C         142.5649  140.2349  164.8597 C.ar    1  UNL1        0.0185
     15 C         144.0687  144.4680  165.1243 C.3     1  UNL1        0.4186
     16 F         144.5699  145.8791  165.2125 F       1  UNL1       -0.1659
     17 F         145.2075  144.0095  165.9861 F       1  UNL1       -0.1659
     18 F         142.9297  144.9264  164.2624 F       1  UNL1       -0.1659
     19 C         141.5075  140.4630  167.2219 C.3     1  UNL1        0.4186
     20 F         140.7281  139.8714  168.3588 F       1  UNL1       -0.1659
     21 F         141.9747  139.0927  166.8292 F       1  UNL1       -0.1659
     22 F         141.0403  141.8332  167.6145 F       1  UNL1       -0.1659
     23 C         142.9559  138.3371  160.7085 C.3     1  UNL1        0.2408
     24 O         141.5280  137.8847  160.7877 O.3     1  UNL1       -0.4724
     25 C         140.7630  138.0369  162.0690 C.ar    1  UNL1        0.1387
     26 C         139.6675  139.0563  162.1719 C.ar    1  UNL1        0.0377
     27 C         138.9025  139.2084  163.4532 C.ar    1  UNL1        0.0181
     28 C         139.2330  138.3411  164.6315 C.ar    1  UNL1        0.1230
     29 C         140.3285  137.3217  164.5287 C.ar    1  UNL1        0.0181
     30 C         141.0935  137.1696  163.2474 C.ar    1  UNL1        0.0377
     31 S         138.4680  138.4933  165.9128 S.3     1  UNL1        0.3127
     32 F         138.5686  137.1493  165.2545 F       1  UNL1       -0.0934
     33 F         137.8036  137.3015  166.5357 F       1  UNL1       -0.0934
     34 F         138.3674  139.8374  166.5712 F       1  UNL1       -0.0934
     35 F         137.7030  138.6455  167.1941 F       1  UNL1       -0.0934
     36 F         139.1325  139.6852  165.2899 F       1  UNL1       -0.0934
@<TRIPOS>BOND
     1     1     2    1
     2     2     3    1
     3     2    23    1
     4    23    24    1
     5    24    25    1
     6    25    26   ar
     7    26    27   ar
     8    27    28   ar
     9    28    31    1
    10    31    32    1
    11    31    33    1
    12    31    34    1
    13    31    35    1
    14    31    36    1
    15    28    29   ar
    16    29    30   ar
    17     2     5    1
    18     5     6    2
    19     5     7   am
    20     7     9    1
    21     9    10   ar
    22    10    11   ar
    23    11    15    1
    24    15    16    1
    25    15    17    1
    26    15    18    1
    27    11    12   ar
    28    12    13   ar
    29    13    19    1
    30    19    20    1
    31    19    21    1
    32    19    22    1
    33    13    14   ar
    34    30    25   ar
    35    14     9   ar
    36     3     4    1
    37     7     8    1
@<TRIPOS>MOLECULE
*****
 36 37 0 0 0
SMALL
GASTEIGER

@<TRIPOS>ATOM
      1 C         142.3205  145.2506  163.9559 C.3     1  UNL1        0.0427
      2 C         143.2245  144.1680  163.4453 C.3     1  UNL1        0.1971
      3 O         143.7709  145.1107  162.4144 O.3     1  UNL1       -0.3751
      4 H         143.4866  144.8250  161.5320 H       1  UNL1        0.2110
      5 C         142.6781  143.2254  164.4762 C.2     1  UNL1        0.2539
      6 O         143.6033  142.3064  165.2175 O.2     1  UNL1       -0.2721
      7 N         141.2065  143.2018  164.7659 N.am    1  UNL1       -0.2819
      8 H         140.5993  143.8050  164.2794 H       1  UNL1        0.1549
      9 C         140.6601  142.2592  165.7969 C.ar    1  UNL1        0.0503
     10 C         140.0820  140.9405  165.3760 C.ar    1  UNL1        0.0185
     11 C         139.5356  139.9979  166.4070 C.ar    1  UNL1        0.0726
     12 C         139.5673  140.3739  167.8588 C.ar    1  UNL1        0.0078
     13 C         140.1454  141.6924  168.2796 C.ar    1  UNL1        0.0726
     14 C         140.6918  142.6352  167.2486 C.ar    1  UNL1        0.0185
     15 C         138.9575  138.6794  165.9861 C.3     1  UNL1        0.4186
     16 F         138.3795  137.3607  165.5652 F       1  UNL1       -0.1659
     17 F         137.5973  139.1362  166.4233 F       1  UNL1       -0.1659
     18 F         140.3178  138.2226  165.5489 F       1  UNL1       -0.1659
     19 C         140.1770  142.0684  169.7314 C.3     1  UNL1        0.4186
     20 F         140.2087  142.4444  171.1832 F       1  UNL1       -0.1659
     21 F         138.9742  141.2076  169.9805 F       1  UNL1       -0.1659
     22 F         141.3799  142.9292  169.4822 F       1  UNL1       -0.1659
     23 C         144.1286  143.0854  162.9346 C.3     1  UNL1        0.2408
     24 O         143.7163  142.2596  161.7523 O.3     1  UNL1       -0.4724
     25 C         142.5409  141.3335  161.8575 C.ar    1  UNL1        0.1387
     26 C         142.7226  139.9510  162.4102 C.ar    1  UNL1        0.0377
     27 C         141.5472  139.0250  162.5154 C.ar    1  UNL1        0.0181
     28 C         140.1903  139.4815  162.0678 C.ar    1  UNL1        0.1230
     29 C         140.0087  140.8641  161.5151 C.ar    1  UNL1        0.0181
     30 C         141.1840  141.7901  161.4099 C.ar    1  UNL1        0.0377
     31 S         139.0150  138.5554  162.1730 S.3     1  UNL1        0.3127
     32 F         140.3544  138.1297  162.6969 F       1  UNL1       -0.0934
     33 F         139.1791  137.2037  162.8021 F       1  UNL1       -0.0934
     34 F         137.6755  138.9812  161.6490 F       1  UNL1       -0.0934
     35 F         137.8396  137.6294  162.2781 F       1  UNL1       -0.0934
     36 F         138.8508  139.9072  161.5438 F       1  UNL1       -0.0934
@<TRIPOS>BOND
     1     1     2    1
     2     2     3    1
     3     2    23    1
     4    23    24    1
     5    24    25    1
     6    25    26   ar
     7    26    27   ar
     8    27    28   ar
     9    28    31    1
    10    31    32    1
    11    31    33    1
    12    31    34    1
    13    31    35    1
    14    31    36    1
    15    28    29   ar
    16    29    30   ar
    17     2     5    1
    18     5     6    2
    19     5     7   am
    20     7     9    1
    21     9    10   ar
    22    10    11   ar
    23    11    15    1
    24    15    16    1
    25    15    17    1
    26    15    18    1
    27    11    12   ar
    28    12    13   ar
    29    13    19    1
    30    19    20    1
    31    19    21    1
    32    19    22    1
    33    13    14   ar
    34    30    25   ar
    35    14     9   ar
    36     3     4    1
    37     7     8    1
