@<TRIPOS>MOLECULE
*****
 30 34 0 0 0
SMALL
GASTEIGER

@<TRIPOS>ATOM
      1 C         138.1314  138.6295  162.2893 C.3     1  UNL1        0.0723
      2 N         138.9036  139.2296  163.4266 N.3     1  UNL1       -0.2698
      3 C         138.2764  140.2902  164.2821 C.3     1  UNL1        0.0938
      4 C         139.0487  140.8903  165.4194 C.3     1  UNL1        0.1081
      5 N         140.4482  140.4298  165.7012 N.pl3   1  UNL1       -0.3046
      6 C         141.0754  139.3692  164.8458 C.3     1  UNL1        0.1081
      7 C         140.3031  138.7691  163.7085 C.3     1  UNL1        0.0938
      8 C         141.2205  141.0299  166.8385 C.ar    1  UNL1        0.0484
      9 C         142.4753  141.8055  166.5664 C.ar    1  UNL1        0.0146
     10 C         143.2476  142.4055  167.7037 C.ar    1  UNL1        0.0018
     11 C         142.7651  142.2300  169.1132 C.ar    1  UNL1        0.0066
     12 C         141.5103  141.4545  169.3852 C.ar    1  UNL1        0.0307
     13 S         140.7950  141.1177  170.6600 S.2     1  UNL1       -0.0864
     14 C         139.5807  140.3094  170.3105 C.ar    1  UNL1        0.0355
     15 C         139.5455  140.1467  168.8198 C.ar    1  UNL1        0.0087
     16 C         140.7380  140.8544  168.2479 C.ar    1  UNL1        0.0198
     17 C         137.4755  139.5198  161.2757 C.3     1  UNL1        0.0194
     18 C         138.2825  140.5607  160.5579 C.3     1  UNL1        0.0279
     19 C         138.2716  141.9815  161.0386 C.3     1  UNL1        0.1323
     20 O         138.5764  145.0276  162.1693 O.2     1  UNL1       -0.2444
     21 C         139.6314  143.9621  162.2106 C.ar    1  UNL1        0.3523
     22 N         139.4913  142.5620  161.6909 N.ar    1  UNL1       -0.2005
     23 N         140.7851  141.8442  161.9381 N.ar    1  UNL1       -0.1451
     24 C         141.7247  142.8007  162.6105 C.ar    1  UNL1        0.1984
     25 C         143.1375  142.6489  163.0911 C.ar    1  UNL1        0.1762
     26 F         143.8505  141.3400  162.9227 F       1  UNL1       -0.2009
     27 C         143.8372  143.8060  163.7402 C.ar    1  UNL1        0.0344
     28 C         143.1242  145.1150  163.9087 C.ar    1  UNL1        0.0216
     29 C         141.7115  145.2668  163.4280 C.ar    1  UNL1        0.0860
     30 N         141.0117  144.1096  162.7789 N.ar    1  UNL1       -0.2390
@<TRIPOS>BOND
     1    20    21    2
     2    21    22   ar
     3    22    19    1
     4    19    18    1
     5    18    17    1
     6    17     1    1
     7     1     2    1
     8     2     3    1
     9     3     4    1
    10     4     5    1
    11     5     8    1
    12     8     9   ar
    13     9    10   ar
    14    10    11   ar
    15    11    12   ar
    16    12    13   ar
    17    13    14   ar
    18    14    15   ar
    19    15    16   ar
    20     5     6    1
    21     6     7    1
    22    22    23   ar
    23    23    24   ar
    24    24    25   ar
    25    25    26    1
    26    25    27   ar
    27    27    28   ar
    28    28    29   ar
    29    29    30   ar
    30    30    21   ar
    31     7     2    1
    32    30    24   ar
    33    16     8   ar
    34    16    12   ar
@<TRIPOS>MOLECULE
*****
 30 34 0 0 0
SMALL
GASTEIGER

@<TRIPOS>ATOM
      1 C         140.6494  145.5266  162.5508 C.3     1  UNL1        0.0723
      2 N         140.9041  144.5525  163.6627 N.3     1  UNL1       -0.2698
      3 C         142.3053  144.1132  163.9687 C.3     1  UNL1        0.0938
      4 C         142.5599  143.1391  165.0806 C.3     1  UNL1        0.1081
      5 N         141.4133  142.6044  165.8865 N.pl3   1  UNL1       -0.3046
      6 C         140.0121  143.0437  165.5805 C.3     1  UNL1        0.1081
      7 C         139.7575  144.0178  164.4686 C.3     1  UNL1        0.0938
      8 C         141.6679  141.6303  166.9984 C.ar    1  UNL1        0.0484
      9 C         142.4243  140.3636  166.7273 C.ar    1  UNL1        0.0146
     10 C         142.6789  139.3895  167.8392 C.ar    1  UNL1        0.0018
     11 C         142.1771  139.6821  169.2222 C.ar    1  UNL1        0.0066
     12 C         141.4208  140.9487  169.4933 C.ar    1  UNL1        0.0307
     13 S         140.8086  141.5039  170.7451 S.2     1  UNL1       -0.0864
     14 C         140.1757  142.8211  170.4069 C.ar    1  UNL1        0.0355
     15 C         140.3967  143.0800  168.9460 C.ar    1  UNL1        0.0087
     16 C         141.1662  141.9228  168.3814 C.ar    1  UNL1        0.0198
     17 C         139.9065  145.0870  161.3241 C.3     1  UNL1        0.0194
     18 C         140.2349  143.7734  160.6788 C.3     1  UNL1        0.0279
     19 C         139.2465  142.6462  160.7270 C.3     1  UNL1        0.1323
     20 O         137.0014  141.7104  162.9026 O.2     1  UNL1       -0.2444
     21 C         138.3723  141.1231  162.7422 C.ar    1  UNL1        0.3523
     22 N         139.4042  141.5532  161.7421 N.ar    1  UNL1       -0.2005
     23 N         140.6216  140.6984  161.9355 N.ar    1  UNL1       -0.1451
     24 C         140.3420  139.7400  163.0550 C.ar    1  UNL1        0.1984
     25 C         141.1737  138.6623  163.6849 C.ar    1  UNL1        0.1762
     26 F         142.5638  138.3998  163.1863 F       1  UNL1       -0.2009
     27 C         140.6152  137.8470  164.8132 C.ar    1  UNL1        0.0344
     28 C         139.2250  138.1094  165.3118 C.ar    1  UNL1        0.0216
     29 C         138.3933  139.1872  164.6820 C.ar    1  UNL1        0.0860
     30 N         138.9518  140.0025  163.5536 N.ar    1  UNL1       -0.2390
@<TRIPOS>BOND
     1    20    21    2
     2    21    22   ar
     3    22    19    1
     4    19    18    1
     5    18    17    1
     6    17     1    1
     7     1     2    1
     8     2     3    1
     9     3     4    1
    10     4     5    1
    11     5     8    1
    12     8     9   ar
    13     9    10   ar
    14    10    11   ar
    15    11    12   ar
    16    12    13   ar
    17    13    14   ar
    18    14    15   ar
    19    15    16   ar
    20     5     6    1
    21     6     7    1
    22    22    23   ar
    23    23    24   ar
    24    24    25   ar
    25    25    26    1
    26    25    27   ar
    27    27    28   ar
    28    28    29   ar
    29    29    30   ar
    30    30    21   ar
    31     7     2    1
    32    30    24   ar
    33    16     8   ar
    34    16    12   ar
@<TRIPOS>MOLECULE
*****
 30 34 0 0 0
SMALL
GASTEIGER

@<TRIPOS>ATOM
      1 C         138.1192  144.1203  163.1629 C.3     1  UNL1        0.0723
      2 N         138.8691  143.3259  164.1908 N.3     1  UNL1       -0.2698
      3 C         140.0530  143.9287  164.8874 C.3     1  UNL1        0.0938
      4 C         140.8028  143.1343  165.9153 C.3     1  UNL1        0.1081
      5 N         140.3688  141.7372  166.2467 N.pl3   1  UNL1       -0.3046
      6 C         139.1849  141.1345  165.5501 C.3     1  UNL1        0.1081
      7 C         138.4351  141.9289  164.5222 C.3     1  UNL1        0.0938
      8 C         141.1186  140.9428  167.2746 C.ar    1  UNL1        0.0484
      9 C         142.0135  139.8176  166.8467 C.ar    1  UNL1        0.0146
     10 C         142.7634  139.0232  167.8746 C.ar    1  UNL1        0.0018
     11 C         142.6183  139.3540  169.3305 C.ar    1  UNL1        0.0066
     12 C         141.7234  140.4791  169.7584 C.ar    1  UNL1        0.0307
     13 S         141.3841  141.0331  171.1104 S.2     1  UNL1       -0.0864
     14 C         140.4245  142.1699  170.9181 C.ar    1  UNL1        0.0355
     15 C         140.1708  142.3185  169.4472 C.ar    1  UNL1        0.0087
     16 C         140.9736  141.2735  168.7305 C.ar    1  UNL1        0.0198
     17 C         138.8537  145.0805  162.2747 C.3     1  UNL1        0.0194
     18 C         139.8036  144.5639  161.2351 C.3     1  UNL1        0.0279
     19 C         141.2820  144.7412  161.4157 C.3     1  UNL1        0.1323
     20 O         144.3142  145.0251  162.5883 O.2     1  UNL1       -0.2444
     21 C         143.4956  143.7686  162.5555 C.ar    1  UNL1        0.3523
     22 N         142.1019  143.6381  162.0165 N.ar    1  UNL1       -0.2005
     23 N         141.6720  142.2108  162.1839 N.ar    1  UNL1       -0.1451
     24 C         142.8000  141.4592  162.8263 C.ar    1  UNL1        0.1984
     25 C         142.9464  140.0225  163.2318 C.ar    1  UNL1        0.1762
     26 F         141.8193  139.0598  163.0022 F       1  UNL1       -0.2009
     27 C         144.2200  139.5486  163.8670 C.ar    1  UNL1        0.0344
     28 C         145.3471  140.5114  164.0966 C.ar    1  UNL1        0.0216
     29 C         145.2006  141.9481  163.6911 C.ar    1  UNL1        0.0860
     30 N         143.9271  142.4220  163.0560 N.ar    1  UNL1       -0.2390
@<TRIPOS>BOND
     1    20    21    2
     2    21    22   ar
     3    22    19    1
     4    19    18    1
     5    18    17    1
     6    17     1    1
     7     1     2    1
     8     2     3    1
     9     3     4    1
    10     4     5    1
    11     5     8    1
    12     8     9   ar
    13     9    10   ar
    14    10    11   ar
    15    11    12   ar
    16    12    13   ar
    17    13    14   ar
    18    14    15   ar
    19    15    16   ar
    20     5     6    1
    21     6     7    1
    22    22    23   ar
    23    23    24   ar
    24    24    25   ar
    25    25    26    1
    26    25    27   ar
    27    27    28   ar
    28    28    29   ar
    29    29    30   ar
    30    30    21   ar
    31     7     2    1
    32    30    24   ar
    33    16     8   ar
    34    16    12   ar
@<TRIPOS>MOLECULE
*****
 30 34 0 0 0
SMALL
GASTEIGER

@<TRIPOS>ATOM
      1 C         140.8611  145.6183  162.6455 C.3     1  UNL1        0.0723
      2 N         141.0745  144.6151  163.7401 N.3     1  UNL1       -0.2698
      3 C         142.4388  144.0360  163.9711 C.3     1  UNL1        0.0938
      4 C         142.6523  143.0329  165.0657 C.3     1  UNL1        0.1081
      5 N         141.5014  142.6088  165.9293 N.pl3   1  UNL1       -0.3046
      6 C         140.1372  143.1880  165.6983 C.3     1  UNL1        0.1081
      7 C         139.9237  144.1911  164.6037 C.3     1  UNL1        0.0938
      8 C         141.7148  141.6057  167.0239 C.ar    1  UNL1        0.0484
      9 C         142.4092  140.3093  166.7282 C.ar    1  UNL1        0.0146
     10 C         142.6226  139.3062  167.8228 C.ar    1  UNL1        0.0018
     11 C         142.1417  139.5994  169.2131 C.ar    1  UNL1        0.0066
     12 C         141.4474  140.8957  169.5087 C.ar    1  UNL1        0.0307
     13 S         140.8680  141.4586  170.7726 S.2     1  UNL1       -0.0864
     14 C         140.2965  142.8096  170.4592 C.ar    1  UNL1        0.0355
     15 C         140.5227  143.0817  169.0016 C.ar    1  UNL1        0.0087
     16 C         141.2340  141.8989  168.4141 C.ar    1  UNL1        0.0198
     17 C         140.8256  145.1705  161.2142 C.3     1  UNL1        0.0194
     18 C         140.2831  143.8162  160.8653 C.3     1  UNL1        0.0279
     19 C         141.2072  142.6380  160.7773 C.3     1  UNL1        0.1323
     20 O         143.3290  140.1942  161.1964 O.2     1  UNL1       -0.2444
     21 C         142.0300  140.3689  161.9258 C.ar    1  UNL1        0.3523
     22 N         141.0547  141.4922  161.7332 N.ar    1  UNL1       -0.2005
     23 N         139.9002  141.2684  162.6643 N.ar    1  UNL1       -0.1451
     24 C         140.1619  140.0068  163.4324 C.ar    1  UNL1        0.1984
     25 C         139.3717  139.2924  164.4884 C.ar    1  UNL1        0.1762
     26 F         138.0555  139.8484  164.9449 F       1  UNL1       -0.2009
     27 C         139.8978  138.0222  165.0880 C.ar    1  UNL1        0.0344
     28 C         141.2141  137.4662  164.6316 C.ar    1  UNL1        0.0216
     29 C         142.0043  138.1806  163.5756 C.ar    1  UNL1        0.0860
     30 N         141.4782  139.4509  162.9760 N.ar    1  UNL1       -0.2390
@<TRIPOS>BOND
     1    20    21    2
     2    21    22   ar
     3    22    19    1
     4    19    18    1
     5    18    17    1
     6    17     1    1
     7     1     2    1
     8     2     3    1
     9     3     4    1
    10     4     5    1
    11     5     8    1
    12     8     9   ar
    13     9    10   ar
    14    10    11   ar
    15    11    12   ar
    16    12    13   ar
    17    13    14   ar
    18    14    15   ar
    19    15    16   ar
    20     5     6    1
    21     6     7    1
    22    22    23   ar
    23    23    24   ar
    24    24    25   ar
    25    25    26    1
    26    25    27   ar
    27    27    28   ar
    28    28    29   ar
    29    29    30   ar
    30    30    21   ar
    31     7     2    1
    32    30    24   ar
    33    16     8   ar
    34    16    12   ar
@<TRIPOS>MOLECULE
*****
 30 34 0 0 0
SMALL
GASTEIGER

@<TRIPOS>ATOM
      1 C         142.3980  137.9009  162.5095 C.3     1  UNL1        0.0723
      2 N         141.9762  138.4768  163.8287 N.3     1  UNL1       -0.2698
      3 C         142.9258  138.4656  164.9899 C.3     1  UNL1        0.0938
      4 C         142.5040  139.0415  166.3092 C.3     1  UNL1        0.1081
      5 N         141.1327  139.6286  166.4673 N.pl3   1  UNL1       -0.3046
      6 C         140.1832  139.6398  165.3061 C.3     1  UNL1        0.1081
      7 C         140.6050  139.0639  163.9868 C.3     1  UNL1        0.0938
      8 C         140.7110  140.2045  167.7865 C.ar    1  UNL1        0.0484
      9 C         139.3661  139.8649  168.3576 C.ar    1  UNL1        0.0146
     10 C         138.9443  140.4408  169.6768 C.ar    1  UNL1        0.0018
     11 C         139.8674  141.3563  170.4250 C.ar    1  UNL1        0.0066
     12 C         141.2122  141.6959  169.8540 C.ar    1  UNL1        0.0307
     13 S         142.3272  142.5630  170.3589 S.2     1  UNL1       -0.0864
     14 C         143.4381  142.5230  169.3517 C.ar    1  UNL1        0.0355
     15 C         143.0096  141.6312  168.2243 C.ar    1  UNL1        0.0087
     16 C         141.6340  141.1200  168.5347 C.ar    1  UNL1        0.0198
     17 C         143.7630  138.1984  161.9632 C.3     1  UNL1        0.0194
     18 C         143.9721  139.3883  161.0742 C.3     1  UNL1        0.0279
     19 C         144.1983  140.7435  161.6758 C.3     1  UNL1        0.1323
     20 O         144.2441  141.7746  164.7717 O.2     1  UNL1       -0.2444
     21 C         143.1007  141.9179  163.8115 C.ar    1  UNL1        0.3523
     22 N         143.0796  141.4440  162.3885 N.ar    1  UNL1       -0.2005
     23 N         141.7435  141.7936  161.8033 N.ar    1  UNL1       -0.1451
     24 C         140.9387  142.4835  162.8646 C.ar    1  UNL1        0.1984
     25 C         139.5505  143.0517  162.8612 C.ar    1  UNL1        0.1762
     26 F         138.7117  142.9748  161.6200 F       1  UNL1       -0.2009
     27 C         139.0012  143.6967  164.0989 C.ar    1  UNL1        0.0344
     28 C         139.8400  143.7736  165.3401 C.ar    1  UNL1        0.0216
     29 C         141.2282  143.2054  165.3435 C.ar    1  UNL1        0.0860
     30 N         141.7775  142.5604  164.1058 N.ar    1  UNL1       -0.2390
@<TRIPOS>BOND
     1    20    21    2
     2    21    22   ar
     3    22    19    1
     4    19    18    1
     5    18    17    1
     6    17     1    1
     7     1     2    1
     8     2     3    1
     9     3     4    1
    10     4     5    1
    11     5     8    1
    12     8     9   ar
    13     9    10   ar
    14    10    11   ar
    15    11    12   ar
    16    12    13   ar
    17    13    14   ar
    18    14    15   ar
    19    15    16   ar
    20     5     6    1
    21     6     7    1
    22    22    23   ar
    23    23    24   ar
    24    24    25   ar
    25    25    26    1
    26    25    27   ar
    27    27    28   ar
    28    28    29   ar
    29    29    30   ar
    30    30    21   ar
    31     7     2    1
    32    30    24   ar
    33    16     8   ar
    34    16    12   ar
@<TRIPOS>MOLECULE
*****
 30 34 0 0 0
SMALL
GASTEIGER

@<TRIPOS>ATOM
      1 C         142.2261  140.1917  169.8391 C.3     1  UNL1        0.0723
      2 N         142.6223  140.5036  168.4264 N.3     1  UNL1       -0.2698
      3 C         142.8910  141.9219  168.0185 C.3     1  UNL1        0.0938
      4 C         143.2872  142.2337  166.6058 C.3     1  UNL1        0.1081
      5 N         143.4147  141.1273  165.6010 N.pl3   1  UNL1       -0.3046
      6 C         143.1459  139.7091  166.0089 C.3     1  UNL1        0.1081
      7 C         142.7497  139.3972  167.4216 C.3     1  UNL1        0.0938
      8 C         143.8109  141.4391  164.1883 C.ar    1  UNL1        0.0484
      9 C         144.2334  142.8299  163.8174 C.ar    1  UNL1        0.0146
     10 C         144.6296  143.1417  162.4047 C.ar    1  UNL1        0.0018
     11 C         144.6032  142.0629  161.3628 C.ar    1  UNL1        0.0066
     12 C         144.1807  140.6722  161.7337 C.ar    1  UNL1        0.0307
     13 S         144.0567  139.4126  160.9287 S.2     1  UNL1       -0.0864
     14 C         143.5839  138.3223  161.8439 C.ar    1  UNL1        0.0355
     15 C         143.4157  138.9080  163.2145 C.ar    1  UNL1        0.0087
     16 C         143.7845  140.3604  163.1464 C.ar    1  UNL1        0.0198
     17 C         140.7880  139.9273  170.1738 C.3     1  UNL1        0.0194
     18 C         139.6996  140.5626  169.3602 C.3     1  UNL1        0.0279
     19 C         139.1321  139.8417  168.1736 C.3     1  UNL1        0.1323
     20 O         139.1529  138.0049  165.4762 O.2     1  UNL1       -0.2444
     21 C         139.4577  139.4719  165.5463 C.ar    1  UNL1        0.3523
     22 N         139.4482  140.3162  166.7861 N.ar    1  UNL1       -0.2005
     23 N         139.8102  141.7183  166.3949 N.ar    1  UNL1       -0.1451
     24 C         140.0434  141.7406  164.9133 C.ar    1  UNL1        0.1984
     25 C         140.4260  142.8457  163.9740 C.ar    1  UNL1        0.1762
     26 F         140.6438  144.2340  164.4985 F       1  UNL1       -0.2009
     27 C         140.5907  142.5625  162.5103 C.ar    1  UNL1        0.0344
     28 C         140.3729  141.1741  161.9858 C.ar    1  UNL1        0.0216
     29 C         139.9903  140.0690  162.9251 C.ar    1  UNL1        0.0860
     30 N         139.8256  140.3522  164.3888 N.ar    1  UNL1       -0.2390
@<TRIPOS>BOND
     1    20    21    2
     2    21    22   ar
     3    22    19    1
     4    19    18    1
     5    18    17    1
     6    17     1    1
     7     1     2    1
     8     2     3    1
     9     3     4    1
    10     4     5    1
    11     5     8    1
    12     8     9   ar
    13     9    10   ar
    14    10    11   ar
    15    11    12   ar
    16    12    13   ar
    17    13    14   ar
    18    14    15   ar
    19    15    16   ar
    20     5     6    1
    21     6     7    1
    22    22    23   ar
    23    23    24   ar
    24    24    25   ar
    25    25    26    1
    26    25    27   ar
    27    27    28   ar
    28    28    29   ar
    29    29    30   ar
    30    30    21   ar
    31     7     2    1
    32    30    24   ar
    33    16     8   ar
    34    16    12   ar
@<TRIPOS>MOLECULE
*****
 30 34 0 0 0
SMALL
GASTEIGER

@<TRIPOS>ATOM
      1 C         141.1609  138.6895  162.0942 C.3     1  UNL1        0.0723
      2 N         141.3632  139.2976  163.4504 N.3     1  UNL1       -0.2698
      3 C         142.0447  138.5113  164.5308 C.3     1  UNL1        0.0938
      4 C         142.2470  139.1195  165.8870 C.3     1  UNL1        0.1081
      5 N         141.7679  140.5139  166.1627 N.pl3   1  UNL1       -0.3046
      6 C         141.0864  141.3002  165.0822 C.3     1  UNL1        0.1081
      7 C         140.8841  140.6920  163.7261 C.3     1  UNL1        0.0938
      8 C         141.9702  141.1221  167.5189 C.ar    1  UNL1        0.0484
      9 C         143.2186  141.8999  167.8134 C.ar    1  UNL1        0.0146
     10 C         143.4209  142.5081  169.1695 C.ar    1  UNL1        0.0018
     11 C         142.3749  142.3384  170.2312 C.ar    1  UNL1        0.0066
     12 C         141.1266  141.5607  169.9367 C.ar    1  UNL1        0.0307
     13 S         139.9293  141.2284  170.7770 S.2     1  UNL1       -0.0864
     14 C         138.9870  140.4148  169.9402 C.ar    1  UNL1        0.0355
     15 C         139.6019  140.2444  168.5827 C.ar    1  UNL1        0.0087
     16 C         140.9242  140.9525  168.5805 C.ar    1  UNL1        0.0198
     17 C         142.1235  137.6587  161.5833 C.3     1  UNL1        0.0194
     18 C         143.5930  137.9573  161.5475 C.3     1  UNL1        0.0279
     19 C         144.0849  139.2291  160.9227 C.3     1  UNL1        0.1323
     20 O         145.3239  139.8034  163.8865 O.2     1  UNL1       -0.2444
     21 C         144.5652  140.7845  163.0428 C.ar    1  UNL1        0.3523
     22 N         143.9957  140.5205  161.6805 N.ar    1  UNL1       -0.2005
     23 N         143.3214  141.7747  161.2090 N.ar    1  UNL1       -0.1451
     24 C         143.4741  142.8138  162.2799 C.ar    1  UNL1        0.1984
     25 C         143.0125  144.2382  162.3695 C.ar    1  UNL1        0.1762
     26 F         142.2438  144.8501  161.2361 F       1  UNL1       -0.2009
     27 C         143.3196  145.0506  163.5925 C.ar    1  UNL1        0.0344
     28 C         144.0884  144.4386  164.7258 C.ar    1  UNL1        0.0216
     29 C         144.5500  143.0142  164.6363 C.ar    1  UNL1        0.0860
     30 N         144.2428  142.2018  163.4133 N.ar    1  UNL1       -0.2390
@<TRIPOS>BOND
     1    20    21    2
     2    21    22   ar
     3    22    19    1
     4    19    18    1
     5    18    17    1
     6    17     1    1
     7     1     2    1
     8     2     3    1
     9     3     4    1
    10     4     5    1
    11     5     8    1
    12     8     9   ar
    13     9    10   ar
    14    10    11   ar
    15    11    12   ar
    16    12    13   ar
    17    13    14   ar
    18    14    15   ar
    19    15    16   ar
    20     5     6    1
    21     6     7    1
    22    22    23   ar
    23    23    24   ar
    24    24    25   ar
    25    25    26    1
    26    25    27   ar
    27    27    28   ar
    28    28    29   ar
    29    29    30   ar
    30    30    21   ar
    31     7     2    1
    32    30    24   ar
    33    16     8   ar
    34    16    12   ar
@<TRIPOS>MOLECULE
*****
 30 34 0 0 0
SMALL
GASTEIGER

@<TRIPOS>ATOM
      1 C         138.0446  138.3492  161.9192 C.3     1  UNL1        0.0723
      2 N         138.5070  138.8269  163.2638 N.3     1  UNL1       -0.2698
      3 C         139.3789  137.9495  164.1123 C.3     1  UNL1        0.0938
      4 C         139.8413  138.4272  165.4569 C.3     1  UNL1        0.1081
      5 N         139.4319  139.7824  165.9529 N.pl3   1  UNL1       -0.3046
      6 C         138.5600  140.6597  165.1044 C.3     1  UNL1        0.1081
      7 C         138.0976  140.1820  163.7598 C.3     1  UNL1        0.0938
      8 C         139.8943  140.2601  167.2975 C.ar    1  UNL1        0.0484
      9 C         139.0827  139.9553  168.5217 C.ar    1  UNL1        0.0146
     10 C         139.5451  140.4331  169.8662 C.ar    1  UNL1        0.0018
     11 C         140.8192  141.2156  169.9867 C.ar    1  UNL1        0.0066
     12 C         141.6307  141.5204  168.7626 C.ar    1  UNL1        0.0307
     13 S         142.9188  142.2650  168.5721 S.2     1  UNL1       -0.0864
     14 C         143.2525  142.2475  167.1098 C.ar    1  UNL1        0.0355
     15 C         142.1706  141.4920  166.3966 C.ar    1  UNL1        0.0087
     16 C         141.1683  141.0426  167.4180 C.ar    1  UNL1        0.0198
     17 C         139.0390  138.1341  160.8169 C.3     1  UNL1        0.0194
     18 C         139.5657  139.3059  160.0427 C.3     1  UNL1        0.0279
     19 C         141.0068  139.3446  159.6284 C.3     1  UNL1        0.1323
     20 O         142.1741  137.5782  162.1117 O.2     1  UNL1       -0.2444
     21 C         142.5932  138.9715  161.7472 C.ar    1  UNL1        0.3523
     22 N         142.0567  139.7834  160.6057 N.ar    1  UNL1       -0.2005
     23 N         142.7543  141.1113  160.6132 N.ar    1  UNL1       -0.1451
     24 C         143.7220  141.1200  161.7593 C.ar    1  UNL1        0.1984
     25 C         144.6810  142.1613  162.2552 C.ar    1  UNL1        0.1762
     26 F         144.7806  143.4838  161.5544 F       1  UNL1       -0.2009
     27 C         145.5404  141.8802  163.4520 C.ar    1  UNL1        0.0344
     28 C         145.4408  140.5577  164.1529 C.ar    1  UNL1        0.0216
     29 C         144.4819  139.5164  163.6569 C.ar    1  UNL1        0.0860
     30 N         143.6225  139.7976  162.4601 N.ar    1  UNL1       -0.2390
@<TRIPOS>BOND
     1    20    21    2
     2    21    22   ar
     3    22    19    1
     4    19    18    1
     5    18    17    1
     6    17     1    1
     7     1     2    1
     8     2     3    1
     9     3     4    1
    10     4     5    1
    11     5     8    1
    12     8     9   ar
    13     9    10   ar
    14    10    11   ar
    15    11    12   ar
    16    12    13   ar
    17    13    14   ar
    18    14    15   ar
    19    15    16   ar
    20     5     6    1
    21     6     7    1
    22    22    23   ar
    23    23    24   ar
    24    24    25   ar
    25    25    26    1
    26    25    27   ar
    27    27    28   ar
    28    28    29   ar
    29    29    30   ar
    30    30    21   ar
    31     7     2    1
    32    30    24   ar
    33    16     8   ar
    34    16    12   ar
@<TRIPOS>MOLECULE
*****
 30 34 0 0 0
SMALL
GASTEIGER

@<TRIPOS>ATOM
      1 C         141.8334  143.7688  160.5780 C.3     1  UNL1        0.0723
      2 N         141.2755  143.0006  161.7394 N.3     1  UNL1       -0.2698
      3 C         140.0557  142.1468  161.5574 C.3     1  UNL1        0.0938
      4 C         139.4978  141.3786  162.7187 C.3     1  UNL1        0.1081
      5 N         140.1598  141.4644  164.0621 N.pl3   1  UNL1       -0.3046
      6 C         141.3795  142.3182  164.2440 C.3     1  UNL1        0.1081
      7 C         141.9374  143.0863  163.0827 C.3     1  UNL1        0.0938
      8 C         139.6019  140.6962  165.2234 C.ar    1  UNL1        0.0484
      9 C         138.5289  139.6721  164.9994 C.ar    1  UNL1        0.0146
     10 C         137.9711  138.9040  166.1607 C.ar    1  UNL1        0.0018
     11 C         138.4861  139.1599  167.5461 C.ar    1  UNL1        0.0066
     12 C         139.5590  140.1840  167.7701 C.ar    1  UNL1        0.0307
     13 S         140.2586  140.6494  169.0127 S.2     1  UNL1       -0.0864
     14 C         141.2488  141.7052  168.6193 C.ar    1  UNL1        0.0355
     15 C         141.1612  141.8923  167.1336 C.ar    1  UNL1        0.0087
     16 C         140.1169  140.9521  166.6088 C.ar    1  UNL1        0.0198
     17 C         142.4719  143.0391  159.4335 C.3     1  UNL1        0.0194
     18 C         143.8375  142.4398  159.5945 C.3     1  UNL1        0.0279
     19 C         143.9926  140.9548  159.7383 C.3     1  UNL1        0.1323
     20 O         145.5008  141.2364  162.6185 O.2     1  UNL1       -0.2444
     21 C         144.2820  140.4081  162.3388 C.ar    1  UNL1        0.3523
     22 N         143.5887  140.2786  161.0149 N.ar    1  UNL1       -0.2005
     23 N         142.4207  139.3543  161.1918 N.ar    1  UNL1       -0.1451
     24 C         142.3920  138.9125  162.6250 C.ar    1  UNL1        0.1984
     25 C         141.4671  138.0014  163.3761 C.ar    1  UNL1        0.1762
     26 F         140.3167  137.3501  162.6672 F       1  UNL1       -0.2009
     27 C         141.6925  137.7415  164.8361 C.ar    1  UNL1        0.0344
     28 C         142.8429  138.3927  165.5450 C.ar    1  UNL1        0.0216
     29 C         143.7678  139.3039  164.7939 C.ar    1  UNL1        0.0860
     30 N         143.5424  139.5638  163.3339 N.ar    1  UNL1       -0.2390
@<TRIPOS>BOND
     1    20    21    2
     2    21    22   ar
     3    22    19    1
     4    19    18    1
     5    18    17    1
     6    17     1    1
     7     1     2    1
     8     2     3    1
     9     3     4    1
    10     4     5    1
    11     5     8    1
    12     8     9   ar
    13     9    10   ar
    14    10    11   ar
    15    11    12   ar
    16    12    13   ar
    17    13    14   ar
    18    14    15   ar
    19    15    16   ar
    20     5     6    1
    21     6     7    1
    22    22    23   ar
    23    23    24   ar
    24    24    25   ar
    25    25    26    1
    26    25    27   ar
    27    27    28   ar
    28    28    29   ar
    29    29    30   ar
    30    30    21   ar
    31     7     2    1
    32    30    24   ar
    33    16     8   ar
    34    16    12   ar
