@<TRIPOS>MOLECULE
*****
 26 28 0 0 0
SMALL
GASTEIGER

@<TRIPOS>ATOM
      1 C         140.8951  144.5879  163.4179 C.3     1  UNL1        0.0716
      2 C         141.8675  143.5173  163.8161 C.3     1  UNL1        0.0199
      3 C         141.6367  142.7221  165.0668 C.3     1  UNL1        0.0060
      4 C         140.4336  142.9973  165.9193 C.3     1  UNL1        0.0224
      5 C         139.4613  144.0678  165.5212 C.3     1  UNL1        0.0060
      6 C         139.6920  144.8632  164.2704 C.3     1  UNL1        0.0199
      7 C         140.2028  142.2020  167.1700 C.ar    1  UNL1       -0.0223
      8 C         139.7606  140.7715  167.0783 C.ar    1  UNL1       -0.0012
      9 C         139.5298  139.9763  168.3289 C.ar    1  UNL1        0.0363
     10 C         139.7412  140.6114  169.6713 C.ar    1  UNL1        0.1337
     11 O         139.5103  139.8160  170.9220 O.3     1  UNL1       -0.5055
     12 C         140.1833  142.0417  169.7630 C.ar    1  UNL1        0.0363
     13 C         140.4141  142.8371  168.5123 C.ar    1  UNL1       -0.0012
     14 H         139.2341  138.9225  170.8647 H       1  UNL1        0.2922
     15 O         139.2233  144.0704  160.9814 O.2     1  UNL1       -0.2751
     16 C         140.2900  145.1244  160.9490 C.2     1  UNL1        0.2228
     17 N         141.1259  145.3832  162.1672 N.am    1  UNL1       -0.3060
     18 H         141.8261  146.0750  162.1460 H       1  UNL1        0.1494
     19 C         140.5208  145.9197  159.6982 C.3     1  UNL1        0.0913
     20 C         140.6961  145.2174  158.3845 C.3     1  UNL1        0.0554
     21 C         140.4069  145.9410  157.1027 C.ar    1  UNL1        0.0595
     22 C         141.1788  145.6050  155.8612 C.ar    1  UNL1        0.0148
     23 C         140.8896  146.3285  154.5795 C.ar    1  UNL1        0.0028
     24 C         139.8286  147.3881  154.5393 C.ar    1  UNL1        0.0207
     25 C         139.0568  147.7241  155.7808 C.ar    1  UNL1        0.0984
     26 N         139.3460  147.0006  157.0625 N.ar    1  UNL1       -0.2481
@<TRIPOS>BOND
     1    15    16    2
     2    16    19    1
     3    19    20    1
     4    20    21    1
     5    21    22   ar
     6    22    23   ar
     7    23    24   ar
     8    24    25   ar
     9    25    26   ar
    10    16    17   am
    11     1    17    1
    12     1     2    1
    13     2     3    1
    14     3     4    1
    15     4     7    1
    16     7     8   ar
    17     8     9   ar
    18     9    10   ar
    19    10    11    1
    20    10    12   ar
    21    12    13   ar
    22     4     5    1
    23     5     6    1
    24    26    21   ar
    25     6     1    1
    26    13     7   ar
    27    17    18    1
    28    11    14    1
@<TRIPOS>MOLECULE
*****
 26 28 0 0 0
SMALL
GASTEIGER

@<TRIPOS>ATOM
      1 C         142.4216  140.1944  167.3706 C.3     1  UNL1        0.0716
      2 C         141.6423  139.7459  166.1699 C.3     1  UNL1        0.0199
      3 C         141.1305  140.7571  165.1873 C.3     1  UNL1        0.0060
      4 C         141.3980  142.2169  165.4054 C.3     1  UNL1        0.0224
      5 C         142.1773  142.6654  166.6060 C.3     1  UNL1        0.0060
      6 C         142.6891  141.6542  167.5887 C.3     1  UNL1        0.0199
      7 C         140.8863  143.2281  164.4228 C.ar    1  UNL1       -0.0223
      8 C         139.5292  143.8385  164.6128 C.ar    1  UNL1       -0.0012
      9 C         139.0175  144.8497  163.6302 C.ar    1  UNL1        0.0363
     10 C         139.8627  145.2506  162.4577 C.ar    1  UNL1        0.1337
     11 O         139.3509  146.2619  161.4751 O.3     1  UNL1       -0.5055
     12 C         141.2196  144.6403  162.2677 C.ar    1  UNL1        0.0363
     13 C         141.7315  143.6290  163.2503 C.ar    1  UNL1       -0.0012
     14 H         138.5032  146.6431  161.5937 H       1  UNL1        0.2922
     15 O         141.0930  139.8944  170.0435 O.2     1  UNL1       -0.2751
     16 C         142.2690  139.0332  169.6896 C.2     1  UNL1        0.2228
     17 N         142.9333  139.1832  168.3532 N.am    1  UNL1       -0.3060
     18 H         143.7052  138.6180  168.1209 H       1  UNL1        0.1494
     19 C         142.7808  138.0219  170.6723 C.3     1  UNL1        0.0913
     20 C         143.8696  137.0712  170.2717 C.3     1  UNL1        0.0554
     21 C         144.7523  136.4579  171.3181 C.ar    1  UNL1        0.0595
     22 C         144.6679  134.9877  171.6028 C.ar    1  UNL1        0.0148
     23 C         145.5506  134.3745  172.6491 C.ar    1  UNL1        0.0028
     24 C         146.5177  135.2316  173.4107 C.ar    1  UNL1        0.0207
     25 C         146.6022  136.7019  173.1260 C.ar    1  UNL1        0.0984
     26 N         145.7195  137.3150  172.0797 N.ar    1  UNL1       -0.2481
@<TRIPOS>BOND
     1    15    16    2
     2    16    19    1
     3    19    20    1
     4    20    21    1
     5    21    22   ar
     6    22    23   ar
     7    23    24   ar
     8    24    25   ar
     9    25    26   ar
    10    16    17   am
    11     1    17    1
    12     1     2    1
    13     2     3    1
    14     3     4    1
    15     4     7    1
    16     7     8   ar
    17     8     9   ar
    18     9    10   ar
    19    10    11    1
    20    10    12   ar
    21    12    13   ar
    22     4     5    1
    23     5     6    1
    24    26    21   ar
    25     6     1    1
    26    13     7   ar
    27    17    18    1
    28    11    14    1
@<TRIPOS>MOLECULE
*****
 26 28 0 0 0
SMALL
GASTEIGER

@<TRIPOS>ATOM
      1 C         140.8454  144.4952  163.4512 C.3     1  UNL1        0.0716
      2 C         139.6723  144.8056  164.3331 C.3     1  UNL1        0.0199
      3 C         139.4632  144.0339  165.6023 C.3     1  UNL1        0.0060
      4 C         140.4271  142.9518  165.9896 C.3     1  UNL1        0.0224
      5 C         141.6001  142.6415  165.1077 C.3     1  UNL1        0.0060
      6 C         141.8093  143.4131  163.8385 C.3     1  UNL1        0.0199
      7 C         140.2180  142.1802  167.2587 C.ar    1  UNL1       -0.0223
      8 C         139.8064  140.7389  167.2010 C.ar    1  UNL1       -0.0012
      9 C         139.5973  139.9672  168.4701 C.ar    1  UNL1        0.0363
     10 C         139.7998  140.6368  169.7970 C.ar    1  UNL1        0.1337
     11 O         139.5907  139.8650  171.0662 O.3     1  UNL1       -0.5055
     12 C         140.2115  142.0780  169.8548 C.ar    1  UNL1        0.0363
     13 C         140.4206  142.8497  168.5856 C.ar    1  UNL1       -0.0012
     14 H         139.3336  138.9647  171.0301 H       1  UNL1        0.2922
     15 O         139.0674  144.0021  161.0858 O.2     1  UNL1       -0.2751
     16 C         140.1655  145.0203  160.9994 C.2     1  UNL1        0.2228
     17 N         141.0545  145.2669  162.1821 N.am    1  UNL1       -0.3060
     18 H         141.7752  145.9352  162.1254 H       1  UNL1        0.1494
     19 C         140.3745  145.7920  159.7301 C.3     1  UNL1        0.0913
     20 C         141.4104  145.3441  158.7420 C.3     1  UNL1        0.0554
     21 C         142.0967  144.0225  158.9220 C.ar    1  UNL1        0.0595
     22 C         141.8230  142.8990  157.9666 C.ar    1  UNL1        0.0148
     23 C         142.5093  141.5774  158.1466 C.ar    1  UNL1        0.0028
     24 C         143.4692  141.3793  159.2820 C.ar    1  UNL1        0.0207
     25 C         143.7429  142.5028  160.2375 C.ar    1  UNL1        0.0984
     26 N         143.0566  143.8243  160.0574 N.ar    1  UNL1       -0.2481
@<TRIPOS>BOND
     1    15    16    2
     2    16    19    1
     3    19    20    1
     4    20    21    1
     5    21    22   ar
     6    22    23   ar
     7    23    24   ar
     8    24    25   ar
     9    25    26   ar
    10    16    17   am
    11     1    17    1
    12     1     2    1
    13     2     3    1
    14     3     4    1
    15     4     7    1
    16     7     8   ar
    17     8     9   ar
    18     9    10   ar
    19    10    11    1
    20    10    12   ar
    21    12    13   ar
    22     4     5    1
    23     5     6    1
    24    26    21   ar
    25     6     1    1
    26    13     7   ar
    27    17    18    1
    28    11    14    1
@<TRIPOS>MOLECULE
*****
 26 28 0 0 0
SMALL
GASTEIGER

@<TRIPOS>ATOM
      1 C         139.4775  140.2700  163.3371 C.3     1  UNL1        0.0716
      2 C         138.8803  139.3740  164.3815 C.3     1  UNL1        0.0199
      3 C         139.0507  139.6998  165.8357 C.3     1  UNL1        0.0060
      4 C         139.8183  140.9216  166.2456 C.3     1  UNL1        0.0224
      5 C         140.4154  141.8176  165.2014 C.3     1  UNL1        0.0060
      6 C         140.2450  141.4918  163.7471 C.3     1  UNL1        0.0199
      7 C         139.9887  141.2474  167.6998 C.ar    1  UNL1       -0.0223
      8 C         139.5480  140.2658  168.7450 C.ar    1  UNL1       -0.0012
      9 C         139.7184  140.5915  170.1992 C.ar    1  UNL1        0.0363
     10 C         140.3295  141.8989  170.6083 C.ar    1  UNL1        0.1337
     11 O         140.4999  142.2247  172.0627 O.3     1  UNL1       -0.5055
     12 C         140.7702  142.8805  169.5633 C.ar    1  UNL1        0.0363
     13 C         140.5998  142.5547  168.1090 C.ar    1  UNL1       -0.0012
     14 H         140.2246  141.6115  172.7155 H       1  UNL1        0.2922
     15 O         137.4292  141.7306  161.7028 O.2     1  UNL1       -0.2751
     16 C         138.2829  140.6746  161.0658 C.2     1  UNL1        0.2228
     17 N         139.3070  139.9443  161.8829 N.am    1  UNL1       -0.3060
     18 H         139.8674  139.2511  161.4648 H       1  UNL1        0.1494
     19 C         138.1124  140.3488  159.6115 C.3     1  UNL1        0.0913
     20 C         138.4022  141.3895  158.5708 C.3     1  UNL1        0.0554
     21 C         137.4603  141.5811  157.4192 C.ar    1  UNL1        0.0595
     22 C         137.5197  142.8381  156.6029 C.ar    1  UNL1        0.0148
     23 C         136.5778  143.0297  155.4513 C.ar    1  UNL1        0.0028
     24 C         135.5765  141.9644  155.1161 C.ar    1  UNL1        0.0207
     25 C         135.5171  140.7074  155.9324 C.ar    1  UNL1        0.0984
     26 N         136.4590  140.5158  157.0839 N.ar    1  UNL1       -0.2481
@<TRIPOS>BOND
     1    15    16    2
     2    16    19    1
     3    19    20    1
     4    20    21    1
     5    21    22   ar
     6    22    23   ar
     7    23    24   ar
     8    24    25   ar
     9    25    26   ar
    10    16    17   am
    11     1    17    1
    12     1     2    1
    13     2     3    1
    14     3     4    1
    15     4     7    1
    16     7     8   ar
    17     8     9   ar
    18     9    10   ar
    19    10    11    1
    20    10    12   ar
    21    12    13   ar
    22     4     5    1
    23     5     6    1
    24    26    21   ar
    25     6     1    1
    26    13     7   ar
    27    17    18    1
    28    11    14    1
@<TRIPOS>MOLECULE
*****
 26 28 0 0 0
SMALL
GASTEIGER

@<TRIPOS>ATOM
      1 C         139.1637  139.8037  164.0039 C.3     1  UNL1        0.0716
      2 C         140.2845  140.7903  164.1471 C.3     1  UNL1        0.0199
      3 C         140.7414  141.2135  165.5116 C.3     1  UNL1        0.0060
      4 C         140.0777  140.6500  166.7331 C.3     1  UNL1        0.0224
      5 C         138.9569  139.6634  166.5900 C.3     1  UNL1        0.0060
      6 C         138.4999  139.2402  165.2254 C.3     1  UNL1        0.0199
      7 C         140.5346  141.0732  168.0976 C.ar    1  UNL1       -0.0223
      8 C         140.6463  140.0606  169.1987 C.ar    1  UNL1       -0.0012
      9 C         141.1033  140.4838  170.5633 C.ar    1  UNL1        0.0363
     10 C         141.4486  141.9195  170.8268 C.ar    1  UNL1        0.1337
     11 O         141.9056  142.3426  172.1915 O.3     1  UNL1       -0.5055
     12 C         141.3369  142.9321  169.7259 C.ar    1  UNL1        0.0363
     13 C         140.8799  142.5089  168.3612 C.ar    1  UNL1       -0.0012
     14 H         141.9753  141.7101  172.8792 H       1  UNL1        0.2922
     15 O         137.2691  141.5365  162.4523 O.2     1  UNL1       -0.2751
     16 C         137.7594  140.2469  161.8635 C.2     1  UNL1        0.2228
     17 N         138.7067  139.3805  162.6393 N.am    1  UNL1       -0.3060
     18 H         139.0285  138.5341  162.2529 H       1  UNL1        0.1494
     19 C         137.3024  139.8238  160.4989 C.3     1  UNL1        0.0913
     20 C         138.0222  140.3192  159.2798 C.3     1  UNL1        0.0554
     21 C         139.1404  139.5123  158.6893 C.ar    1  UNL1        0.0595
     22 C         140.4214  139.3367  159.4498 C.ar    1  UNL1        0.0148
     23 C         141.5395  138.5298  158.8593 C.ar    1  UNL1        0.0028
     24 C         141.3767  137.8986  157.5083 C.ar    1  UNL1        0.0207
     25 C         140.0958  138.0743  156.7478 C.ar    1  UNL1        0.0984
     26 N         138.9777  138.8811  157.3383 N.ar    1  UNL1       -0.2481
@<TRIPOS>BOND
     1    15    16    2
     2    16    19    1
     3    19    20    1
     4    20    21    1
     5    21    22   ar
     6    22    23   ar
     7    23    24   ar
     8    24    25   ar
     9    25    26   ar
    10    16    17   am
    11     1    17    1
    12     1     2    1
    13     2     3    1
    14     3     4    1
    15     4     7    1
    16     7     8   ar
    17     8     9   ar
    18     9    10   ar
    19    10    11    1
    20    10    12   ar
    21    12    13   ar
    22     4     5    1
    23     5     6    1
    24    26    21   ar
    25     6     1    1
    26    13     7   ar
    27    17    18    1
    28    11    14    1
@<TRIPOS>MOLECULE
*****
 26 28 0 0 0
SMALL
GASTEIGER

@<TRIPOS>ATOM
      1 C         138.2245  140.5291  164.2853 C.3     1  UNL1        0.0716
      2 C         138.0753  139.3736  165.2301 C.3     1  UNL1        0.0199
      3 C         138.7674  139.3984  166.5606 C.3     1  UNL1        0.0060
      4 C         139.6087  140.5788  166.9465 C.3     1  UNL1        0.0224
      5 C         139.7580  141.7343  166.0018 C.3     1  UNL1        0.0060
      6 C         139.0659  141.7095  164.6711 C.3     1  UNL1        0.0199
      7 C         140.3008  140.6037  168.2770 C.ar    1  UNL1       -0.0223
      8 C         139.7333  141.4168  169.4025 C.ar    1  UNL1       -0.0012
      9 C         140.4254  141.4417  170.7331 C.ar    1  UNL1        0.0363
     10 C         141.6850  140.6534  170.9381 C.ar    1  UNL1        0.1337
     11 O         142.3771  140.6783  172.2687 O.3     1  UNL1       -0.5055
     12 C         142.2525  139.8403  169.8127 C.ar    1  UNL1        0.0363
     13 C         141.5604  139.8154  168.4820 C.ar    1  UNL1       -0.0012
     14 H         142.0226  141.1863  172.9718 H       1  UNL1        0.2922
     15 O         139.3241  138.8526  162.0538 O.2     1  UNL1       -0.2751
     16 C         138.0822  139.6660  161.8390 C.2     1  UNL1        0.2228
     17 N         137.5324  140.5042  162.9548 N.am    1  UNL1       -0.3060
     18 H         136.7173  141.0381  162.8139 H       1  UNL1        0.1494
     19 C         137.3901  139.6411  160.5084 C.3     1  UNL1        0.0913
     20 C         137.7947  140.6068  159.4344 C.3     1  UNL1        0.0554
     21 C         138.8984  141.5908  159.6874 C.ar    1  UNL1        0.0595
     22 C         140.3165  141.2276  159.3604 C.ar    1  UNL1        0.0148
     23 C         141.4200  142.2115  159.6134 C.ar    1  UNL1        0.0028
     24 C         141.1054  143.5586  160.1935 C.ar    1  UNL1        0.0207
     25 C         139.6873  143.9218  160.5205 C.ar    1  UNL1        0.0984
     26 N         138.5838  142.9379  160.2674 N.ar    1  UNL1       -0.2481
@<TRIPOS>BOND
     1    15    16    2
     2    16    19    1
     3    19    20    1
     4    20    21    1
     5    21    22   ar
     6    22    23   ar
     7    23    24   ar
     8    24    25   ar
     9    25    26   ar
    10    16    17   am
    11     1    17    1
    12     1     2    1
    13     2     3    1
    14     3     4    1
    15     4     7    1
    16     7     8   ar
    17     8     9   ar
    18     9    10   ar
    19    10    11    1
    20    10    12   ar
    21    12    13   ar
    22     4     5    1
    23     5     6    1
    24    26    21   ar
    25     6     1    1
    26    13     7   ar
    27    17    18    1
    28    11    14    1
@<TRIPOS>MOLECULE
*****
 26 28 0 0 0
SMALL
GASTEIGER

@<TRIPOS>ATOM
      1 C         141.8143  138.3765  164.0394 C.3     1  UNL1        0.0716
      2 C         142.8617  138.9560  164.9434 C.3     1  UNL1        0.0199
      3 C         142.4555  139.7286  166.1633 C.3     1  UNL1        0.0060
      4 C         141.0019  139.9218  166.4791 C.3     1  UNL1        0.0224
      5 C         139.9545  139.3424  165.5752 C.3     1  UNL1        0.0060
      6 C         140.3607  138.5697  164.3553 C.3     1  UNL1        0.0199
      7 C         140.5957  140.6944  167.6990 C.ar    1  UNL1       -0.0223
      8 C         139.6732  140.0747  168.7066 C.ar    1  UNL1       -0.0012
      9 C         139.2670  140.8473  169.9264 C.ar    1  UNL1        0.0363
     10 C         139.7832  142.2396  170.1387 C.ar    1  UNL1        0.1337
     11 O         139.3770  143.0122  171.3586 O.3     1  UNL1       -0.5055
     12 C         140.7057  142.8593  169.1312 C.ar    1  UNL1        0.0363
     13 C         141.1119  142.0867  167.9113 C.ar    1  UNL1       -0.0012
     14 H         138.8008  142.6251  171.9880 H       1  UNL1        0.2922
     15 O         142.3029  139.8100  161.4498 O.2     1  UNL1       -0.2751
     16 C         142.4648  138.3207  161.5248 C.2     1  UNL1        0.2228
     17 N         142.2205  137.6039  162.8196 N.am    1  UNL1       -0.3060
     18 H         142.3267  136.6264  162.8688 H       1  UNL1        0.1494
     19 C         142.8710  137.5480  160.3048 C.3     1  UNL1        0.0913
     20 C         142.7750  138.1823  158.9490 C.3     1  UNL1        0.0554
     21 C         142.2051  137.4082  157.7974 C.ar    1  UNL1        0.0595
     22 C         140.9101  137.8364  157.1734 C.ar    1  UNL1        0.0148
     23 C         140.3403  137.0623  156.0219 C.ar    1  UNL1        0.0028
     24 C         141.0656  135.8599  155.4944 C.ar    1  UNL1        0.0207
     25 C         142.3606  135.4316  156.1184 C.ar    1  UNL1        0.0984
     26 N         142.9304  136.2058  157.2699 N.ar    1  UNL1       -0.2481
@<TRIPOS>BOND
     1    15    16    2
     2    16    19    1
     3    19    20    1
     4    20    21    1
     5    21    22   ar
     6    22    23   ar
     7    23    24   ar
     8    24    25   ar
     9    25    26   ar
    10    16    17   am
    11     1    17    1
    12     1     2    1
    13     2     3    1
    14     3     4    1
    15     4     7    1
    16     7     8   ar
    17     8     9   ar
    18     9    10   ar
    19    10    11    1
    20    10    12   ar
    21    12    13   ar
    22     4     5    1
    23     5     6    1
    24    26    21   ar
    25     6     1    1
    26    13     7   ar
    27    17    18    1
    28    11    14    1
@<TRIPOS>MOLECULE
*****
 26 28 0 0 0
SMALL
GASTEIGER

@<TRIPOS>ATOM
      1 C         141.6313  144.3649  163.6622 C.3     1  UNL1        0.0716
      2 C         143.0241  143.8854  163.9454 C.3     1  UNL1        0.0199
      3 C         143.2917  143.0243  165.1441 C.3     1  UNL1        0.0060
      4 C         142.1664  142.6428  166.0597 C.3     1  UNL1        0.0224
      5 C         140.7737  143.1223  165.7765 C.3     1  UNL1        0.0060
      6 C         140.5060  143.9834  164.5778 C.3     1  UNL1        0.0199
      7 C         142.4340  141.7818  167.2584 C.ar    1  UNL1       -0.0223
      8 C         143.0009  142.3897  168.5071 C.ar    1  UNL1       -0.0012
      9 C         143.2685  141.5287  169.7058 C.ar    1  UNL1        0.0363
     10 C         142.9692  140.0597  169.6559 C.ar    1  UNL1        0.1337
     11 O         143.2367  139.1986  170.8547 O.3     1  UNL1       -0.5055
     12 C         142.4023  139.4517  168.4073 C.ar    1  UNL1        0.0363
     13 C         142.1347  140.3128  167.2085 C.ar    1  UNL1       -0.0012
     14 H         143.5909  139.5784  171.6347 H       1  UNL1        0.2922
     15 O         140.4299  143.1628  161.1901 O.2     1  UNL1       -0.2751
     16 C         140.7630  144.6249  161.2274 C.2     1  UNL1        0.2228
     17 N         141.3637  145.2259  162.4634 N.am    1  UNL1       -0.3060
     18 H         141.5824  146.1855  162.4879 H       1  UNL1        0.1494
     19 C         140.4954  145.4859  160.0286 C.3     1  UNL1        0.0913
     20 C         141.4144  145.4295  158.8444 C.3     1  UNL1        0.0554
     21 C         140.9190  145.8427  157.4902 C.ar    1  UNL1        0.0595
     22 C         141.6583  145.4128  156.2579 C.ar    1  UNL1        0.0148
     23 C         141.1629  145.8260  154.9037 C.ar    1  UNL1        0.0028
     24 C         139.9282  146.6690  154.7818 C.ar    1  UNL1        0.0207
     25 C         139.1889  147.0988  156.0141 C.ar    1  UNL1        0.0984
     26 N         139.6843  146.6857  157.3683 N.ar    1  UNL1       -0.2481
@<TRIPOS>BOND
     1    15    16    2
     2    16    19    1
     3    19    20    1
     4    20    21    1
     5    21    22   ar
     6    22    23   ar
     7    23    24   ar
     8    24    25   ar
     9    25    26   ar
    10    16    17   am
    11     1    17    1
    12     1     2    1
    13     2     3    1
    14     3     4    1
    15     4     7    1
    16     7     8   ar
    17     8     9   ar
    18     9    10   ar
    19    10    11    1
    20    10    12   ar
    21    12    13   ar
    22     4     5    1
    23     5     6    1
    24    26    21   ar
    25     6     1    1
    26    13     7   ar
    27    17    18    1
    28    11    14    1
@<TRIPOS>MOLECULE
*****
 26 28 0 0 0
SMALL
GASTEIGER

@<TRIPOS>ATOM
      1 C         142.0590  138.5171  164.0719 C.3     1  UNL1        0.0716
      2 C         143.3531  138.7460  164.7951 C.3     1  UNL1        0.0199
      3 C         143.3508  139.3815  166.1537 C.3     1  UNL1        0.0060
      4 C         142.0544  139.7882  166.7893 C.3     1  UNL1        0.0224
      5 C         140.7603  139.5593  166.0662 C.3     1  UNL1        0.0060
      6 C         140.7626  138.9238  164.7074 C.3     1  UNL1        0.0199
      7 C         142.0521  140.4237  168.1480 C.ar    1  UNL1       -0.0223
      8 C         142.9149  141.6209  168.4175 C.ar    1  UNL1       -0.0012
      9 C         142.9126  142.2564  169.7762 C.ar    1  UNL1        0.0363
     10 C         142.0475  141.6949  170.8654 C.ar    1  UNL1        0.1337
     11 O         142.0452  142.3305  172.2241 O.3     1  UNL1       -0.5055
     12 C         141.1847  140.4978  170.5959 C.ar    1  UNL1        0.0363
     13 C         141.1870  139.8622  169.2372 C.ar    1  UNL1       -0.0012
     14 H         142.5841  143.0783  172.3924 H       1  UNL1        0.2922
     15 O         142.9765  140.0847  161.6843 O.2     1  UNL1       -0.2751
     16 C         142.5201  138.6653  161.5194 C.2     1  UNL1        0.2228
     17 N         142.0613  137.8816  162.7132 N.am    1  UNL1       -0.3060
     18 H         141.7618  136.9500  162.6050 H       1  UNL1        0.1494
     19 C         142.5224  138.0298  160.1607 C.3     1  UNL1        0.0913
     20 C         141.3523  138.2201  159.2417 C.3     1  UNL1        0.0554
     21 C         140.0382  138.6935  159.7887 C.ar    1  UNL1        0.0595
     22 C         139.3273  139.8446  159.1411 C.ar    1  UNL1        0.0148
     23 C         138.0132  140.3179  159.6881 C.ar    1  UNL1        0.0028
     24 C         137.4102  139.6401  160.8826 C.ar    1  UNL1        0.0207
     25 C         138.1212  138.4890  161.5302 C.ar    1  UNL1        0.0984
     26 N         139.4352  138.0157  160.9832 N.ar    1  UNL1       -0.2481
@<TRIPOS>BOND
     1    15    16    2
     2    16    19    1
     3    19    20    1
     4    20    21    1
     5    21    22   ar
     6    22    23   ar
     7    23    24   ar
     8    24    25   ar
     9    25    26   ar
    10    16    17   am
    11     1    17    1
    12     1     2    1
    13     2     3    1
    14     3     4    1
    15     4     7    1
    16     7     8   ar
    17     8     9   ar
    18     9    10   ar
    19    10    11    1
    20    10    12   ar
    21    12    13   ar
    22     4     5    1
    23     5     6    1
    24    26    21   ar
    25     6     1    1
    26    13     7   ar
    27    17    18    1
    28    11    14    1
