@<TRIPOS>MOLECULE
*****
 39 43 0 0 0
SMALL
GASTEIGER

@<TRIPOS>ATOM
      1 C         139.9836  146.4526  156.5267 C.3     1  UNL1        0.0948
      2 C         140.3219  145.0311  156.8656 C.2     1  UNL1        0.2261
      3 O         140.4457  144.0091  155.7747 O.2     1  UNL1       -0.2749
      4 N         140.5364  144.6316  158.2954 N.am    1  UNL1       -0.2789
      5 C         140.4126  145.6536  159.3864 C.3     1  UNL1        0.0951
      6 C         140.6271  145.2541  160.8162 C.3     1  UNL1        0.0416
      7 C         140.9654  143.8326  161.1551 C.3     1  UNL1        0.0838
      8 C         141.0892  142.8106  160.0642 C.3     1  UNL1        0.1141
      9 C         140.8747  143.2101  158.6343 C.3     1  UNL1        0.1041
     10 N         141.1799  143.4331  162.5849 N.am    1  UNL1       -0.3006
     11 C         142.5371  143.5748  163.2077 C.2     1  UNL1        0.2669
     12 O         143.6799  144.1159  162.4006 O.2     1  UNL1       -0.2684
     13 H         140.4298  143.0780  163.1146 H       1  UNL1        0.1497
     14 C         142.7515  143.1753  164.6375 C.ar    1  UNL1        0.1761
     15 C         141.7711  142.4428  165.5049 C.ar    1  UNL1        0.0673
     16 C         142.3978  142.2530  166.8545 C.ar    1  UNL1        0.1792
     17 O         143.7655  142.8681  166.8212 O.2     1  UNL1       -0.3532
     18 N         143.9841  143.4381  165.4510 N.ar    1  UNL1       -0.0723
     19 C         141.7674  141.5683  168.0308 C.ar    1  UNL1        0.0648
     20 C         142.2777  140.2321  168.4829 C.ar    1  UNL1        0.0077
     21 C         141.6473  139.5474  169.6592 C.ar    1  UNL1        0.0299
     22 C         140.5066  140.1988  170.3834 C.ar    1  UNL1        0.1424
     23 F         139.8763  139.5140  171.5598 F       1  UNL1       -0.2041
     24 C         139.9963  141.5349  169.9314 C.ar    1  UNL1        0.0593
     25 C         140.6267  142.2196  168.7551 C.ar    1  UNL1        0.1453
     26 F         140.1164  143.5557  168.3030 F       1  UNL1       -0.2040
     27 C         141.4275  141.3891  160.4030 C.2     1  UNL1        0.2255
     28 O         140.4261  140.5292  161.1157 O.2     1  UNL1       -0.2750
     29 N         142.7672  140.8274  160.0293 N.am    1  UNL1       -0.3010
     30 H         143.4244  141.3917  159.5615 H       1  UNL1        0.1497
     31 C         143.1055  139.4058  160.3681 C.3     1  UNL1        0.1089
     32 C         143.2696  137.9222  160.2199 C.3     1  UNL1        0.0274
     33 C         142.7215  138.7334  159.0835 C.3     1  UNL1        0.0274
     34 C         143.6069  139.5847  161.7705 C.ar    1  UNL1        0.1549
     35 N         144.7472  140.5196  162.0456 N.ar    1  UNL1       -0.2276
     36 C         145.2487  140.6985  163.4480 C.ar    1  UNL1        0.1019
     37 C         144.6100  139.9425  164.5751 C.ar    1  UNL1        0.0413
     38 C         143.4698  139.0075  164.2999 C.ar    1  UNL1        0.1019
     39 N         142.9683  138.8286  162.8975 N.ar    1  UNL1       -0.2276
@<TRIPOS>BOND
     1     1     2    1
     2     2     3    2
     3     2     4   am
     4     4     5    1
     5     5     6    1
     6     6     7    1
     7     7    10    1
     8    10    11   am
     9    11    12    2
    10    11    14    1
    11    14    15   ar
    12    15    16   ar
    13    16    19    1
    14    19    20   ar
    15    20    21   ar
    16    21    22   ar
    17    22    23    1
    18    22    24   ar
    19    24    25   ar
    20    25    26    1
    21    16    17   ar
    22    17    18   ar
    23     7     8    1
    24     8    27    1
    25    27    28    2
    26    27    29   am
    27    29    31    1
    28    31    34    1
    29    34    35   ar
    30    35    36   ar
    31    36    37   ar
    32    37    38   ar
    33    38    39   ar
    34    31    32    1
    35    32    33    1
    36     8     9    1
    37     9     4    1
    38    18    14   ar
    39    33    31    1
    40    25    19   ar
    41    39    34   ar
    42    10    13    1
    43    29    30    1
@<TRIPOS>MOLECULE
*****
 39 43 0 0 0
SMALL
GASTEIGER

@<TRIPOS>ATOM
      1 C         143.0116  137.5712  156.1181 C.3     1  UNL1        0.0948
      2 C         142.7185  138.9188  156.7078 C.2     1  UNL1        0.2261
      3 O         142.6349  140.1243  155.8191 O.2     1  UNL1       -0.2749
      4 N         142.5089  139.0610  158.1863 N.am    1  UNL1       -0.2789
      5 C         142.5924  137.8555  159.0750 C.3     1  UNL1        0.0951
      6 C         142.3828  137.9977  160.5535 C.3     1  UNL1        0.0416
      7 C         142.0897  139.3454  161.1432 C.3     1  UNL1        0.0838
      8 C         142.0062  140.5508  160.2545 C.3     1  UNL1        0.1141
      9 C         142.2158  140.4087  158.7761 C.3     1  UNL1        0.1041
     10 N         141.8801  139.4875  162.6217 N.am    1  UNL1       -0.3006
     11 C         143.0135  139.2251  163.5685 C.2     1  UNL1        0.2669
     12 O         144.3566  138.8205  163.0369 O.2     1  UNL1       -0.2684
     13 H         140.9987  139.7531  162.9706 H       1  UNL1        0.1497
     14 C         142.8040  139.3673  165.0470 C.ar    1  UNL1        0.1761
     15 C         141.9368  140.3895  165.7203 C.ar    1  UNL1        0.0673
     16 C         142.0217  140.1662  167.2012 C.ar    1  UNL1        0.1792
     17 O         142.9412  139.0061  167.4431 O.2     1  UNL1       -0.3532
     18 N         143.4247  138.5124  166.1117 N.ar    1  UNL1       -0.0723
     19 C         141.3116  140.9631  168.2551 C.ar    1  UNL1        0.0648
     20 C         140.0387  140.4453  168.8564 C.ar    1  UNL1        0.0077
     21 C         139.3286  141.2422  169.9103 C.ar    1  UNL1        0.0299
     22 C         139.8914  142.5570  170.3628 C.ar    1  UNL1        0.1424
     23 F         139.1812  143.3538  171.4167 F       1  UNL1       -0.2041
     24 C         141.1643  143.0748  169.7615 C.ar    1  UNL1        0.0593
     25 C         141.8744  142.2778  168.7076 C.ar    1  UNL1        0.1453
     26 F         143.1472  142.7957  168.1062 F       1  UNL1       -0.2040
     27 C         141.7131  141.8986  160.8443 C.2     1  UNL1        0.2255
     28 O         142.5374  142.4124  161.9873 O.2     1  UNL1       -0.2750
     29 N         140.5957  142.7324  160.2911 N.am    1  UNL1       -0.3010
     30 H         140.0546  142.3951  159.5409 H       1  UNL1        0.1497
     31 C         140.3025  144.0801  160.8808 C.3     1  UNL1        0.1089
     32 C         140.3017  145.5690  161.0630 C.3     1  UNL1        0.0274
     33 C         141.0423  144.9546  159.9123 C.3     1  UNL1        0.0274
     34 C         139.4610  143.6736  162.0541 C.ar    1  UNL1        0.1549
     35 N         138.3710  142.6581  161.8791 N.ar    1  UNL1       -0.2276
     36 C         137.5294  142.2515  163.0523 C.ar    1  UNL1        0.1019
     37 C         137.7779  142.8602  164.4005 C.ar    1  UNL1        0.0413
     38 C         138.8680  143.8757  164.5755 C.ar    1  UNL1        0.1019
     39 N         139.7096  144.2823  163.4022 N.ar    1  UNL1       -0.2276
@<TRIPOS>BOND
     1     1     2    1
     2     2     3    2
     3     2     4   am
     4     4     5    1
     5     5     6    1
     6     6     7    1
     7     7    10    1
     8    10    11   am
     9    11    12    2
    10    11    14    1
    11    14    15   ar
    12    15    16   ar
    13    16    19    1
    14    19    20   ar
    15    20    21   ar
    16    21    22   ar
    17    22    23    1
    18    22    24   ar
    19    24    25   ar
    20    25    26    1
    21    16    17   ar
    22    17    18   ar
    23     7     8    1
    24     8    27    1
    25    27    28    2
    26    27    29   am
    27    29    31    1
    28    31    34    1
    29    34    35   ar
    30    35    36   ar
    31    36    37   ar
    32    37    38   ar
    33    38    39   ar
    34    31    32    1
    35    32    33    1
    36     8     9    1
    37     9     4    1
    38    18    14   ar
    39    33    31    1
    40    25    19   ar
    41    39    34   ar
    42    10    13    1
    43    29    30    1
@<TRIPOS>MOLECULE
*****
 39 43 0 0 0
SMALL
GASTEIGER

@<TRIPOS>ATOM
      1 C         139.7376  146.5394  156.5673 C.3     1  UNL1        0.0948
      2 C         140.3079  145.1705  156.7922 C.2     1  UNL1        0.2261
      3 O         140.6321  144.2913  155.6209 O.2     1  UNL1       -0.2749
      4 N         140.5540  144.6806  158.1885 N.am    1  UNL1       -0.2789
      5 C         140.2299  145.5598  159.3598 C.3     1  UNL1        0.0951
      6 C         140.4760  145.0700  160.7560 C.3     1  UNL1        0.0416
      7 C         141.0463  143.7010  160.9810 C.3     1  UNL1        0.0838
      8 C         141.3705  142.8219  159.8097 C.3     1  UNL1        0.1141
      9 C         141.1243  143.3117  158.4134 C.3     1  UNL1        0.1041
     10 N         141.2924  143.2112  162.3772 N.am    1  UNL1       -0.3006
     11 C         142.4558  143.7392  163.1631 C.2     1  UNL1        0.2669
     12 O         143.3731  144.7571  162.5528 O.2     1  UNL1       -0.2684
     13 H         140.6904  142.5431  162.7778 H       1  UNL1        0.1497
     14 C         142.7019  143.2494  164.5594 C.ar    1  UNL1        0.1761
     15 C         141.7010  142.5660  165.4433 C.ar    1  UNL1        0.0673
     16 C         142.3727  142.2512  166.7471 C.ar    1  UNL1        0.1792
     17 O         143.7886  142.7400  166.6689 O.2     1  UNL1       -0.3532
     18 N         143.9921  143.3569  165.3169 N.ar    1  UNL1       -0.0723
     19 C         141.7395  141.5676  167.9225 C.ar    1  UNL1        0.0648
     20 C         142.2296  140.2189  168.3593 C.ar    1  UNL1        0.0077
     21 C         141.5964  139.5353  169.5347 C.ar    1  UNL1        0.0299
     22 C         140.4731  140.2004  170.2735 C.ar    1  UNL1        0.1424
     23 F         139.8400  139.5167  171.4490 F       1  UNL1       -0.2041
     24 C         139.9829  141.5491  169.8368 C.ar    1  UNL1        0.0593
     25 C         140.6161  142.2327  168.6613 C.ar    1  UNL1        0.1453
     26 F         140.1259  143.5814  168.2246 F       1  UNL1       -0.2040
     27 C         141.9408  141.4528  160.0346 C.2     1  UNL1        0.2255
     28 O         143.1089  141.2693  160.9576 O.2     1  UNL1       -0.2750
     29 N         141.3430  140.2673  159.3365 N.am    1  UNL1       -0.3010
     30 H         140.5764  140.3878  158.7308 H       1  UNL1        0.1497
     31 C         141.9134  138.8983  159.5615 C.3     1  UNL1        0.1089
     32 C         142.7705  137.6810  159.3786 C.3     1  UNL1        0.0274
     33 C         142.9370  138.8594  158.4657 C.3     1  UNL1        0.0274
     34 C         141.0878  138.4619  160.7353 C.ar    1  UNL1        0.1549
     35 N         139.5906  138.5184  160.6615 N.ar    1  UNL1       -0.2276
     36 C         138.7649  138.0819  161.8353 C.ar    1  UNL1        0.1019
     37 C         139.4363  137.5890  163.0828 C.ar    1  UNL1        0.0413
     38 C         140.9334  137.5325  163.1565 C.ar    1  UNL1        0.1019
     39 N         141.7591  137.9689  161.9827 N.ar    1  UNL1       -0.2276
@<TRIPOS>BOND
     1     1     2    1
     2     2     3    2
     3     2     4   am
     4     4     5    1
     5     5     6    1
     6     6     7    1
     7     7    10    1
     8    10    11   am
     9    11    12    2
    10    11    14    1
    11    14    15   ar
    12    15    16   ar
    13    16    19    1
    14    19    20   ar
    15    20    21   ar
    16    21    22   ar
    17    22    23    1
    18    22    24   ar
    19    24    25   ar
    20    25    26    1
    21    16    17   ar
    22    17    18   ar
    23     7     8    1
    24     8    27    1
    25    27    28    2
    26    27    29   am
    27    29    31    1
    28    31    34    1
    29    34    35   ar
    30    35    36   ar
    31    36    37   ar
    32    37    38   ar
    33    38    39   ar
    34    31    32    1
    35    32    33    1
    36     8     9    1
    37     9     4    1
    38    18    14   ar
    39    33    31    1
    40    25    19   ar
    41    39    34   ar
    42    10    13    1
    43    29    30    1
@<TRIPOS>MOLECULE
*****
 39 43 0 0 0
SMALL
GASTEIGER

@<TRIPOS>ATOM
      1 C         143.0289  136.2720  156.8487 C.3     1  UNL1        0.0948
      2 C         142.7136  137.7366  156.9236 C.2     1  UNL1        0.2261
      3 O         142.4412  138.5102  155.6678 O.2     1  UNL1       -0.2749
      4 N         142.6706  138.4274  158.2544 N.am    1  UNL1       -0.2789
      5 C         142.9429  137.6537  159.5102 C.3     1  UNL1        0.0951
      6 C         142.8999  138.3446  160.8410 C.3     1  UNL1        0.0416
      7 C         142.5846  139.8091  160.9159 C.3     1  UNL1        0.0838
      8 C         142.3122  140.5828  159.6600 C.3     1  UNL1        0.1141
      9 C         142.3552  139.8919  158.3293 C.3     1  UNL1        0.1041
     10 N         142.5416  140.5000  162.2466 N.am    1  UNL1       -0.3006
     11 C         143.8054  141.0264  162.8595 C.2     1  UNL1        0.2669
     12 O         145.1122  140.8620  162.1417 O.2     1  UNL1       -0.2684
     13 H         141.6839  140.6079  162.7177 H       1  UNL1        0.1497
     14 C         143.7624  141.7173  164.1903 C.ar    1  UNL1        0.1761
     15 C         142.8638  141.3642  165.3383 C.ar    1  UNL1        0.0673
     16 C         143.1565  142.3113  166.4642 C.ar    1  UNL1        0.1792
     17 O         144.2359  143.2495  166.0120 O.2     1  UNL1       -0.3532
     18 N         144.6104  142.8824  164.6066 N.ar    1  UNL1       -0.0723
     19 C         142.4872  142.3187  167.8066 C.ar    1  UNL1        0.0648
     20 C         143.3005  142.1202  169.0512 C.ar    1  UNL1        0.0077
     21 C         142.6313  142.1276  170.3936 C.ar    1  UNL1        0.0299
     22 C         141.1487  142.3334  170.4914 C.ar    1  UNL1        0.1424
     23 F         140.4795  142.3408  171.8338 F       1  UNL1       -0.2041
     24 C         140.3353  142.5319  169.2467 C.ar    1  UNL1        0.0593
     25 C         141.0046  142.5245  167.9044 C.ar    1  UNL1        0.1453
     26 F         140.1913  142.7229  166.6598 F       1  UNL1       -0.2040
     27 C         141.9969  142.0474  159.7349 C.2     1  UNL1        0.2255
     28 O         142.9815  142.9960  160.3519 O.2     1  UNL1       -0.2750
     29 N         140.6970  142.5634  159.1926 N.am    1  UNL1       -0.3010
     30 H         140.0508  141.9408  158.7876 H       1  UNL1        0.1497
     31 C         140.3816  144.0280  159.2675 C.3     1  UNL1        0.1089
     32 C         140.2892  145.4719  158.8718 C.3     1  UNL1        0.0274
     33 C         140.9139  144.4771  157.9390 C.3     1  UNL1        0.0274
     34 C         139.7399  144.0873  160.6220 C.ar    1  UNL1        0.1549
     35 N         138.5688  143.2043  160.9362 N.ar    1  UNL1       -0.2276
     36 C         137.9270  143.2636  162.2907 C.ar    1  UNL1        0.1019
     37 C         138.4563  144.2058  163.3309 C.ar    1  UNL1        0.0413
     38 C         139.6274  145.0888  163.0166 C.ar    1  UNL1        0.1019
     39 N         140.2692  145.0295  161.6621 N.ar    1  UNL1       -0.2276
@<TRIPOS>BOND
     1     1     2    1
     2     2     3    2
     3     2     4   am
     4     4     5    1
     5     5     6    1
     6     6     7    1
     7     7    10    1
     8    10    11   am
     9    11    12    2
    10    11    14    1
    11    14    15   ar
    12    15    16   ar
    13    16    19    1
    14    19    20   ar
    15    20    21   ar
    16    21    22   ar
    17    22    23    1
    18    22    24   ar
    19    24    25   ar
    20    25    26    1
    21    16    17   ar
    22    17    18   ar
    23     7     8    1
    24     8    27    1
    25    27    28    2
    26    27    29   am
    27    29    31    1
    28    31    34    1
    29    34    35   ar
    30    35    36   ar
    31    36    37   ar
    32    37    38   ar
    33    38    39   ar
    34    31    32    1
    35    32    33    1
    36     8     9    1
    37     9     4    1
    38    18    14   ar
    39    33    31    1
    40    25    19   ar
    41    39    34   ar
    42    10    13    1
    43    29    30    1
@<TRIPOS>MOLECULE
*****
 39 43 0 0 0
SMALL
GASTEIGER

@<TRIPOS>ATOM
      1 C         138.7471  139.9159  169.9444 C.3     1  UNL1        0.0948
      2 C         139.7170  140.6729  169.0864 C.2     1  UNL1        0.2261
      3 O         140.7871  141.5094  169.7229 O.2     1  UNL1       -0.2749
      4 N         139.6167  140.5934  167.5918 N.am    1  UNL1       -0.2789
      5 C         138.5467  139.7569  166.9554 C.3     1  UNL1        0.0951
      6 C         138.4464  139.6774  165.4608 C.3     1  UNL1        0.0416
      7 C         139.4163  140.4344  164.6028 C.3     1  UNL1        0.0838
      8 C         140.4864  141.2709  165.2392 C.3     1  UNL1        0.1141
      9 C         140.5866  141.3504  166.7338 C.3     1  UNL1        0.1041
     10 N         139.3161  140.3549  163.1082 N.am    1  UNL1       -0.3006
     11 C         138.2327  141.1019  162.3884 C.2     1  UNL1        0.2669
     12 O         137.2495  141.9285  163.1631 O.2     1  UNL1       -0.2684
     13 H         139.9614  139.8124  162.5998 H       1  UNL1        0.1497
     14 C         138.1325  141.0224  160.8939 C.ar    1  UNL1        0.1761
     15 C         138.5589  142.0843  159.9239 C.ar    1  UNL1        0.0673
     16 C         138.2782  141.5852  158.5374 C.ar    1  UNL1        0.1792
     17 O         137.6783  140.2150  158.6505 O.2     1  UNL1       -0.3532
     18 N         137.5883  139.8672  160.1069 N.ar    1  UNL1       -0.0723
     19 C         138.5497  142.3262  157.2619 C.ar    1  UNL1        0.0648
     20 C         139.8759  142.9943  157.0504 C.ar    1  UNL1        0.0077
     21 C         140.1475  143.7353  155.7748 C.ar    1  UNL1        0.0299
     22 C         139.0927  143.8084  154.7107 C.ar    1  UNL1        0.1424
     23 F         139.3644  144.5495  153.4352 F       1  UNL1       -0.2041
     24 C         137.7665  143.1403  154.9222 C.ar    1  UNL1        0.0593
     25 C         137.4949  142.3993  156.1978 C.ar    1  UNL1        0.1453
     26 F         136.1687  141.7312  156.4093 F       1  UNL1       -0.2040
     27 C         141.4563  142.0279  164.3812 C.2     1  UNL1        0.2255
     28 O         142.1053  141.3538  163.2089 O.2     1  UNL1       -0.2750
     29 N         141.7773  143.4591  164.6955 N.am    1  UNL1       -0.3010
     30 H         141.3513  143.9015  165.4649 H       1  UNL1        0.1497
     31 C         142.7472  144.2161  163.8374 C.3     1  UNL1        0.1089
     32 C         144.0362  144.8169  163.3605 C.3     1  UNL1        0.0274
     33 C         144.0027  144.0294  164.6367 C.3     1  UNL1        0.0274
     34 C         141.8285  144.6656  162.7402 C.ar    1  UNL1        0.1549
     35 N         142.2115  144.4502  161.3060 N.ar    1  UNL1       -0.2276
     36 C         141.2928  144.8997  160.2088 C.ar    1  UNL1        0.1019
     37 C         139.9911  145.5645  160.5456 C.ar    1  UNL1        0.0413
     38 C         139.6081  145.7799  161.9798 C.ar    1  UNL1        0.1019
     39 N         140.5268  145.3304  163.0771 N.ar    1  UNL1       -0.2276
@<TRIPOS>BOND
     1     1     2    1
     2     2     3    2
     3     2     4   am
     4     4     5    1
     5     5     6    1
     6     6     7    1
     7     7    10    1
     8    10    11   am
     9    11    12    2
    10    11    14    1
    11    14    15   ar
    12    15    16   ar
    13    16    19    1
    14    19    20   ar
    15    20    21   ar
    16    21    22   ar
    17    22    23    1
    18    22    24   ar
    19    24    25   ar
    20    25    26    1
    21    16    17   ar
    22    17    18   ar
    23     7     8    1
    24     8    27    1
    25    27    28    2
    26    27    29   am
    27    29    31    1
    28    31    34    1
    29    34    35   ar
    30    35    36   ar
    31    36    37   ar
    32    37    38   ar
    33    38    39   ar
    34    31    32    1
    35    32    33    1
    36     8     9    1
    37     9     4    1
    38    18    14   ar
    39    33    31    1
    40    25    19   ar
    41    39    34   ar
    42    10    13    1
    43    29    30    1
@<TRIPOS>MOLECULE
*****
 39 43 0 0 0
SMALL
GASTEIGER

@<TRIPOS>ATOM
      1 C         138.6630  140.1751  169.9916 C.3     1  UNL1        0.0948
      2 C         139.5977  140.9462  169.1076 C.2     1  UNL1        0.2261
      3 O         140.4342  142.0505  169.6828 O.2     1  UNL1       -0.2749
      4 N         139.6961  140.6130  167.6483 N.am    1  UNL1       -0.2789
      5 C         138.8596  139.5088  167.0731 C.3     1  UNL1        0.0951
      6 C         138.9580  139.1756  165.6139 C.3     1  UNL1        0.0416
      7 C         139.8928  139.9467  164.7299 C.3     1  UNL1        0.0838
      8 C         140.7292  141.0510  165.3051 C.3     1  UNL1        0.1141
      9 C         140.6309  141.3841  166.7643 C.3     1  UNL1        0.1041
     10 N         139.9911  139.6136  163.2707 N.am    1  UNL1       -0.3006
     11 C         138.8655  139.9651  162.3436 C.2     1  UNL1        0.2669
     12 O         137.6416  140.6499  162.8757 O.2     1  UNL1       -0.2684
     13 H         140.7944  139.1641  162.9214 H       1  UNL1        0.1497
     14 C         138.9639  139.6320  160.8844 C.ar    1  UNL1        0.1761
     15 C         140.0391  138.8094  160.2383 C.ar    1  UNL1        0.0673
     16 C         139.7440  138.7319  158.7696 C.ar    1  UNL1        0.1792
     17 O         138.4864  139.5066  158.5080 O.2     1  UNL1       -0.3532
     18 N         138.0043  140.0628  159.8150 N.ar    1  UNL1       -0.0723
     19 C         140.5628  138.0071  157.7429 C.ar    1  UNL1        0.0648
     20 C         139.8842  137.2682  156.6277 C.ar    1  UNL1        0.0077
     21 C         140.7029  136.5434  155.6010 C.ar    1  UNL1        0.0299
     22 C         142.2003  136.5573  155.6894 C.ar    1  UNL1        0.1424
     23 F         143.0189  135.8324  154.6626 F       1  UNL1       -0.2041
     24 C         142.8788  137.2962  156.8046 C.ar    1  UNL1        0.0593
     25 C         142.0601  138.0210  157.8313 C.ar    1  UNL1        0.1453
     26 F         142.7387  138.7599  158.9465 F       1  UNL1       -0.2040
     27 C         141.6640  141.8222  164.4211 C.2     1  UNL1        0.2255
     28 O         142.3624  141.1334  163.2862 O.2     1  UNL1       -0.2750
     29 N         141.9005  143.2820  164.6719 N.am    1  UNL1       -0.3010
     30 H         141.4421  143.7340  165.4168 H       1  UNL1        0.1497
     31 C         142.8353  144.0532  163.7879 C.3     1  UNL1        0.1089
     32 C         144.1045  144.6609  163.2685 C.3     1  UNL1        0.0274
     33 C         144.1226  143.8505  164.5306 C.3     1  UNL1        0.0274
     34 C         141.8725  144.5236  162.7383 C.ar    1  UNL1        0.1549
     35 N         140.5637  145.1354  163.1414 N.ar    1  UNL1       -0.2276
     36 C         139.6008  145.6059  162.0918 C.ar    1  UNL1        0.1019
     37 C         139.9468  145.4645  160.6391 C.ar    1  UNL1        0.0413
     38 C         141.2557  144.8526  160.2360 C.ar    1  UNL1        0.1019
     39 N         142.2186  144.3821  161.2856 N.ar    1  UNL1       -0.2276
@<TRIPOS>BOND
     1     1     2    1
     2     2     3    2
     3     2     4   am
     4     4     5    1
     5     5     6    1
     6     6     7    1
     7     7    10    1
     8    10    11   am
     9    11    12    2
    10    11    14    1
    11    14    15   ar
    12    15    16   ar
    13    16    19    1
    14    19    20   ar
    15    20    21   ar
    16    21    22   ar
    17    22    23    1
    18    22    24   ar
    19    24    25   ar
    20    25    26    1
    21    16    17   ar
    22    17    18   ar
    23     7     8    1
    24     8    27    1
    25    27    28    2
    26    27    29   am
    27    29    31    1
    28    31    34    1
    29    34    35   ar
    30    35    36   ar
    31    36    37   ar
    32    37    38   ar
    33    38    39   ar
    34    31    32    1
    35    32    33    1
    36     8     9    1
    37     9     4    1
    38    18    14   ar
    39    33    31    1
    40    25    19   ar
    41    39    34   ar
    42    10    13    1
    43    29    30    1
@<TRIPOS>MOLECULE
*****
 39 43 0 0 0
SMALL
GASTEIGER

@<TRIPOS>ATOM
      1 C         142.8010  139.7117  170.1999 C.3     1  UNL1        0.0948
      2 C         142.0754  140.6275  169.2593 C.2     1  UNL1        0.2261
      3 O         141.3917  141.8546  169.7854 O.2     1  UNL1       -0.2749
      4 N         142.0334  140.3162  167.7925 N.am    1  UNL1       -0.2789
      5 C         142.7170  139.0891  167.2664 C.3     1  UNL1        0.0951
      6 C         142.6751  138.7778  165.7997 C.3     1  UNL1        0.0416
      7 C         141.9495  139.6935  164.8590 C.3     1  UNL1        0.0838
      8 C         141.2658  140.9206  165.3852 C.3     1  UNL1        0.1141
      9 C         141.3078  141.2320  166.8519 C.3     1  UNL1        0.1041
     10 N         141.9075  139.3822  163.3923 N.am    1  UNL1       -0.3006
     11 C         143.1467  139.5258  162.5594 C.2     1  UNL1        0.2669
     12 O         144.4279  139.9806  163.1932 O.2     1  UNL1       -0.2684
     13 H         141.0666  139.0837  162.9763 H       1  UNL1        0.1497
     14 C         143.1047  139.2144  161.0926 C.ar    1  UNL1        0.1761
     15 C         141.8940  138.7888  160.3159 C.ar    1  UNL1        0.0673
     16 C         142.3072  138.5854  158.8883 C.ar    1  UNL1        0.1792
     17 O         143.7731  138.8853  158.7827 O.2     1  UNL1       -0.3532
     18 N         144.2660  139.2740  160.1451 N.ar    1  UNL1       -0.0723
     19 C         141.4115  138.1573  157.7638 C.ar    1  UNL1        0.0648
     20 C         140.1922  138.9636  157.4276 C.ar    1  UNL1        0.0077
     21 C         139.2966  138.5355  156.3031 C.ar    1  UNL1        0.0299
     22 C         139.6203  137.3011  155.5147 C.ar    1  UNL1        0.1424
     23 F         138.7246  136.8731  154.3902 F       1  UNL1       -0.2041
     24 C         140.8396  136.4947  155.8510 C.ar    1  UNL1        0.0593
     25 C         141.7352  136.9229  156.9755 C.ar    1  UNL1        0.1453
     26 F         142.9546  136.1165  157.3117 F       1  UNL1       -0.2040
     27 C         140.5402  141.8365  164.4445 C.2     1  UNL1        0.2255
     28 O         141.2961  142.5599  163.3697 O.2     1  UNL1       -0.2750
     29 N         139.0587  142.0288  164.5787 N.am    1  UNL1       -0.3010
     30 H         138.5625  141.5540  165.2841 H       1  UNL1        0.1497
     31 C         138.3330  142.9447  163.6381 C.3     1  UNL1        0.1089
     32 C         137.6515  144.1730  163.1120 C.3     1  UNL1        0.0274
     33 C         138.2081  144.1625  164.5049 C.3     1  UNL1        0.0274
     34 C         138.2060  142.0449  162.4447 C.ar    1  UNL1        0.1549
     35 N         137.6933  140.6452  162.6121 N.ar    1  UNL1       -0.2276
     36 C         137.5662  139.7453  161.4187 C.ar    1  UNL1        0.1019
     37 C         137.9518  140.2451  160.0580 C.ar    1  UNL1        0.0413
     38 C         138.4645  141.6448  159.8906 C.ar    1  UNL1        0.1019
     39 N         138.5915  142.5447  161.0840 N.ar    1  UNL1       -0.2276
@<TRIPOS>BOND
     1     1     2    1
     2     2     3    2
     3     2     4   am
     4     4     5    1
     5     5     6    1
     6     6     7    1
     7     7    10    1
     8    10    11   am
     9    11    12    2
    10    11    14    1
    11    14    15   ar
    12    15    16   ar
    13    16    19    1
    14    19    20   ar
    15    20    21   ar
    16    21    22   ar
    17    22    23    1
    18    22    24   ar
    19    24    25   ar
    20    25    26    1
    21    16    17   ar
    22    17    18   ar
    23     7     8    1
    24     8    27    1
    25    27    28    2
    26    27    29   am
    27    29    31    1
    28    31    34    1
    29    34    35   ar
    30    35    36   ar
    31    36    37   ar
    32    37    38   ar
    33    38    39   ar
    34    31    32    1
    35    32    33    1
    36     8     9    1
    37     9     4    1
    38    18    14   ar
    39    33    31    1
    40    25    19   ar
    41    39    34   ar
    42    10    13    1
    43    29    30    1
@<TRIPOS>MOLECULE
*****
 39 43 0 0 0
SMALL
GASTEIGER

@<TRIPOS>ATOM
      1 C         143.3138  137.1079  156.0166 C.3     1  UNL1        0.0948
      2 C         142.7150  138.3674  156.5688 C.2     1  UNL1        0.2261
      3 O         142.3045  139.4722  155.6410 O.2     1  UNL1       -0.2749
      4 N         142.5268  138.5222  158.0489 N.am    1  UNL1       -0.2789
      5 C         142.9374  137.4174  158.9767 C.3     1  UNL1        0.0951
      6 C         142.7491  137.5721  160.4568 C.3     1  UNL1        0.0416
      7 C         142.1504  138.8317  161.0091 C.3     1  UNL1        0.0838
      8 C         141.7398  139.9364  160.0813 C.3     1  UNL1        0.1141
      9 C         141.9280  139.7817  158.6012 C.3     1  UNL1        0.1041
     10 N         141.9621  138.9864  162.4891 N.am    1  UNL1       -0.3006
     11 C         143.1243  139.3684  163.3571 C.2     1  UNL1        0.2669
     12 O         144.4748  139.5958  162.7450 O.2     1  UNL1       -0.2684
     13 H         141.0758  138.8372  162.8909 H       1  UNL1        0.1497
     14 C         142.9361  139.5232  164.8372 C.ar    1  UNL1        0.1761
     15 C         142.0310  140.5107  165.5124 C.ar    1  UNL1        0.0673
     16 C         142.1555  140.3154  166.9944 C.ar    1  UNL1        0.1792
     17 O         143.1374  139.2073  167.2352 O.2     1  UNL1       -0.3532
     18 N         143.6198  138.7177  165.9019 N.ar    1  UNL1       -0.0723
     19 C         141.4260  141.0919  168.0503 C.ar    1  UNL1        0.0648
     20 C         141.0010  142.5053  167.7827 C.ar    1  UNL1        0.0077
     21 C         140.2715  143.2818  168.8386 C.ar    1  UNL1        0.0299
     22 C         139.9671  142.6449  170.1621 C.ar    1  UNL1        0.1424
     23 F         139.2376  143.4216  171.2179 F       1  UNL1       -0.2041
     24 C         140.3921  141.2315  170.4298 C.ar    1  UNL1        0.0593
     25 C         141.1216  140.4550  169.3739 C.ar    1  UNL1        0.1453
     26 F         141.5466  139.0416  169.6415 F       1  UNL1       -0.2040
     27 C         141.1410  141.1960  160.6335 C.2     1  UNL1        0.2255
     28 O         140.0822  141.1212  161.6933 O.2     1  UNL1       -0.2750
     29 N         141.6011  142.5304  160.1259 N.am    1  UNL1       -0.3010
     30 H         142.2960  142.5796  159.4303 H       1  UNL1        0.1497
     31 C         141.0023  143.7901  160.6782 C.3     1  UNL1        0.1089
     32 C         140.1023  144.9828  160.8105 C.3     1  UNL1        0.0274
     33 C         139.9274  144.0351  159.6610 C.3     1  UNL1        0.0274
     34 C         141.8692  143.9823  161.8870 C.ar    1  UNL1        0.1549
     35 N         143.3250  144.3039  161.7223 N.ar    1  UNL1       -0.2276
     36 C         144.1921  144.4962  162.9312 C.ar    1  UNL1        0.1019
     37 C         143.6033  144.3669  164.3047 C.ar    1  UNL1        0.0413
     38 C         142.1475  144.0453  164.4694 C.ar    1  UNL1        0.1019
     39 N         141.2805  143.8530  163.2605 N.ar    1  UNL1       -0.2276
@<TRIPOS>BOND
     1     1     2    1
     2     2     3    2
     3     2     4   am
     4     4     5    1
     5     5     6    1
     6     6     7    1
     7     7    10    1
     8    10    11   am
     9    11    12    2
    10    11    14    1
    11    14    15   ar
    12    15    16   ar
    13    16    19    1
    14    19    20   ar
    15    20    21   ar
    16    21    22   ar
    17    22    23    1
    18    22    24   ar
    19    24    25   ar
    20    25    26    1
    21    16    17   ar
    22    17    18   ar
    23     7     8    1
    24     8    27    1
    25    27    28    2
    26    27    29   am
    27    29    31    1
    28    31    34    1
    29    34    35   ar
    30    35    36   ar
    31    36    37   ar
    32    37    38   ar
    33    38    39   ar
    34    31    32    1
    35    32    33    1
    36     8     9    1
    37     9     4    1
    38    18    14   ar
    39    33    31    1
    40    25    19   ar
    41    39    34   ar
    42    10    13    1
    43    29    30    1
@<TRIPOS>MOLECULE
*****
 39 43 0 0 0
SMALL
GASTEIGER

@<TRIPOS>ATOM
      1 C         140.9332  140.2699  171.4152 C.3     1  UNL1        0.0948
      2 C         140.3539  141.0062  170.2438 C.2     1  UNL1        0.2261
      3 O         139.2232  141.9703  170.4487 O.2     1  UNL1       -0.2749
      4 N         140.9053  140.7785  168.8675 N.am    1  UNL1       -0.2789
      5 C         142.0360  139.8145  168.6626 C.3     1  UNL1        0.0951
      6 C         142.5874  139.5868  167.2864 C.3     1  UNL1        0.0416
      7 C         142.0081  140.3232  166.1150 C.3     1  UNL1        0.0838
      8 C         140.8774  141.2872  166.3199 C.3     1  UNL1        0.1141
      9 C         140.3260  141.5149  167.6962 C.3     1  UNL1        0.1041
     10 N         142.5595  140.0955  164.7387 N.am    1  UNL1       -0.3006
     11 C         141.9655  139.0360  163.8586 C.2     1  UNL1        0.2669
     12 O         140.8200  138.2042  164.3547 O.2     1  UNL1       -0.2684
     13 H         143.3113  140.6414  164.4131 H       1  UNL1        0.1497
     14 C         142.5169  138.8083  162.4823 C.ar    1  UNL1        0.1761
     15 C         141.7139  138.5393  161.2442 C.ar    1  UNL1        0.0673
     16 C         142.6689  138.3744  160.0992 C.ar    1  UNL1        0.1792
     17 O         144.0620  138.5415  160.6297 O.2     1  UNL1       -0.3532
     18 N         143.9680  138.8097  162.1025 N.ar    1  UNL1       -0.0723
     19 C         142.2962  138.0919  158.6740 C.ar    1  UNL1        0.0648
     20 C         142.8144  136.8598  157.9933 C.ar    1  UNL1        0.0077
     21 C         142.4416  136.5774  156.5681 C.ar    1  UNL1        0.0299
     22 C         141.5506  137.5270  155.8236 C.ar    1  UNL1        0.1424
     23 F         141.1779  137.2444  154.3983 F       1  UNL1       -0.2041
     24 C         141.0324  138.7591  156.5042 C.ar    1  UNL1        0.0593
     25 C         141.4052  139.0416  157.9294 C.ar    1  UNL1        0.1453
     26 F         140.8870  140.2737  158.6101 F       1  UNL1       -0.2040
     27 C         140.2980  142.0236  165.1485 C.2     1  UNL1        0.2255
     28 O         141.2051  142.6033  164.1039 O.2     1  UNL1       -0.2750
     29 N         138.8116  142.1803  165.0218 N.am    1  UNL1       -0.3010
     30 H         138.2163  141.7998  165.7074 H       1  UNL1        0.1497
     31 C         138.2323  142.9167  163.8504 C.3     1  UNL1        0.1089
     32 C         137.6747  144.0400  163.0274 C.3     1  UNL1        0.0274
     33 C         138.0939  144.2862  164.4464 C.3     1  UNL1        0.0274
     34 C         138.1695  141.8029  162.8477 C.ar    1  UNL1        0.1549
     35 N         138.1904  142.1129  161.3803 N.ar    1  UNL1       -0.2276
     36 C         138.1276  140.9990  160.3775 C.ar    1  UNL1        0.1019
     37 C         138.0440  139.5753  160.8422 C.ar    1  UNL1        0.0413
     38 C         138.0231  139.2654  162.3096 C.ar    1  UNL1        0.1019
     39 N         138.0859  140.3792  163.3124 N.ar    1  UNL1       -0.2276
@<TRIPOS>BOND
     1     1     2    1
     2     2     3    2
     3     2     4   am
     4     4     5    1
     5     5     6    1
     6     6     7    1
     7     7    10    1
     8    10    11   am
     9    11    12    2
    10    11    14    1
    11    14    15   ar
    12    15    16   ar
    13    16    19    1
    14    19    20   ar
    15    20    21   ar
    16    21    22   ar
    17    22    23    1
    18    22    24   ar
    19    24    25   ar
    20    25    26    1
    21    16    17   ar
    22    17    18   ar
    23     7     8    1
    24     8    27    1
    25    27    28    2
    26    27    29   am
    27    29    31    1
    28    31    34    1
    29    34    35   ar
    30    35    36   ar
    31    36    37   ar
    32    37    38   ar
    33    38    39   ar
    34    31    32    1
    35    32    33    1
    36     8     9    1
    37     9     4    1
    38    18    14   ar
    39    33    31    1
    40    25    19   ar
    41    39    34   ar
    42    10    13    1
    43    29    30    1
