@<TRIPOS>MOLECULE
*****
 35 38 0 0 0
SMALL
GASTEIGER

@<TRIPOS>ATOM
      1 C         140.9483  140.3496  164.6408 C.2     1  UNL1        0.1397
      2 C         140.7201  140.2508  163.1616 C.2     1  UNL1        0.1355
      3 N         140.4999  141.4943  162.3520 N.pl3   1  UNL1       -0.1998
      4 C         140.5079  142.8364  163.0217 C.2     1  UNL1        0.3442
      5 N         140.7361  142.9352  164.5009 N.2     1  UNL1       -0.0580
      6 C         140.9563  141.6917  165.3105 C.3     1  UNL1        0.2692
      7 H         140.3501  141.4295  161.3811 H       1  UNL1        0.2983
      8 C         141.1845  141.7905  166.7898 C.ar    1  UNL1        0.0371
      9 C         140.0651  141.4926  167.7428 C.ar    1  UNL1        0.0030
     10 C         140.2933  141.5913  169.2220 C.ar    1  UNL1        0.0295
     11 C         141.6408  141.9880  169.7483 C.ar    1  UNL1        0.1406
     12 F         141.8690  142.0868  171.2275 F       1  UNL1       -0.2042
     13 C         142.7602  142.2859  168.7952 C.ar    1  UNL1        0.0362
     14 C         142.5320  142.1871  167.3159 C.ar    1  UNL1        0.0372
     15 BR        143.6513  142.4850  166.3629 Br      1  UNL1       -0.0491
     16 C         140.2877  144.0799  162.2121 C.ar    1  UNL1        0.1931
     17 N         139.6673  145.3539  162.7040 N.ar    1  UNL1       -0.2297
     18 C         139.6454  146.3290  161.5645 C.ar    1  UNL1        0.1067
     19 C         140.2523  145.6577  160.3682 C.ar    1  UNL1        0.0577
     20 S         140.6493  144.2677  160.7686 S.2     1  UNL1       -0.0586
     21 C         141.1685  139.1061  165.4503 C.2     1  UNL1        0.3447
     22 O         142.5463  138.7577  165.9301 O.2     1  UNL1       -0.2450
     23 O         140.0109  138.2111  165.7801 O.3     1  UNL1       -0.4455
     24 C         137.7295  138.5832  166.9664 C.3     1  UNL1        0.0513
     25 C         138.6136  138.7565  165.7670 C.3     1  UNL1        0.2089
     26 C         140.7121  138.9086  162.4918 C.3     1  UNL1        0.1407
     27 N         140.7069  138.8176  160.9946 N.3     1  UNL1       -0.2584
     28 C         141.9868  138.5658  160.2541 C.3     1  UNL1        0.1052
     29 C         141.9815  138.4748  158.7568 C.3     1  UNL1        0.1595
     30 O         140.6963  138.6354  158.0002 O.3     1  UNL1       -0.3505
     31 C         139.4164  138.8871  158.7407 C.3     1  UNL1        0.1637
     32 C         139.4216  138.9782  160.2379 C.3     1  UNL1        0.1247
     33 C         138.1417  139.2299  160.9785 C.2     1  UNL1        0.0673
     34 O         137.6370  140.6322  161.1486 O.co2   1  UNL1       -0.5477
     35 O         137.3666  138.0794  161.5490 O.co2   1  UNL1       -0.5477
@<TRIPOS>UNITY_ATOM_ATTR
34 1
charge -1
@<TRIPOS>BOND
     1    24    25    1
     2    25    23    1
     3    23    21    1
     4    21    22    2
     5    21     1    1
     6     1     2    2
     7     2    26    1
     8    26    27    1
     9    27    28    1
    10    28    29    1
    11    29    30    1
    12    30    31    1
    13    31    32    1
    14    32    33    1
    15    33    34   ar
    16    33    35   ar
    17     2     3    1
    18     3     4    1
    19     4    16    1
    20    16    17   ar
    21    17    18   ar
    22    18    19   ar
    23    19    20   ar
    24     4     5    2
    25     5     6    1
    26     6     8    1
    27     8     9   ar
    28     9    10   ar
    29    10    11   ar
    30    11    12    1
    31    11    13   ar
    32    13    14   ar
    33    14    15    1
    34     6     1    1
    35    14     8   ar
    36    32    27    1
    37    20    16   ar
    38     3     7    1
@<TRIPOS>MOLECULE
*****
 35 38 0 0 0
SMALL
GASTEIGER

@<TRIPOS>ATOM
      1 C         139.1296  141.3737  160.7814 C.2     1  UNL1        0.1397
      2 C         139.2400  140.7666  159.4143 C.2     1  UNL1        0.1355
      3 N         139.3457  141.6509  158.2073 N.pl3   1  UNL1       -0.1998
      4 C         139.3410  143.1423  158.3674 C.2     1  UNL1        0.3442
      5 N         139.2305  143.7494  159.7346 N.2     1  UNL1       -0.0580
      6 C         139.1249  142.8651  160.9416 C.3     1  UNL1        0.2692
      7 H         139.4182  141.2524  157.3099 H       1  UNL1        0.2983
      8 C         139.0144  143.4722  162.3088 C.ar    1  UNL1        0.0371
      9 C         137.6709  143.6120  162.9611 C.ar    1  UNL1        0.0030
     10 C         137.5604  144.2191  164.3282 C.ar    1  UNL1        0.0295
     11 C         138.7935  144.6865  165.0432 C.ar    1  UNL1        0.1406
     12 F         138.6830  145.2936  166.4104 F       1  UNL1       -0.2042
     13 C         140.1370  144.5467  164.3910 C.ar    1  UNL1        0.0362
     14 C         140.2475  143.9396  163.0237 C.ar    1  UNL1        0.0372
     15 BR        141.5910  143.7998  162.3715 Br      1  UNL1       -0.0491
     16 C         139.4467  144.0266  157.1604 C.ar    1  UNL1        0.1931
     17 N         140.0340  145.4064  157.1271 N.ar    1  UNL1       -0.2297
     18 C         139.9339  145.9190  155.7209 C.ar    1  UNL1        0.1067
     19 C         139.2847  144.8559  154.8852 C.ar    1  UNL1        0.0577
     20 S         138.9836  143.6863  155.7749 S.2     1  UNL1       -0.0586
     21 C         139.0239  140.4894  161.9884 C.2     1  UNL1        0.3447
     22 O         137.7101  139.8585  162.3433 O.2     1  UNL1       -0.2450
     23 O         140.2320  140.2359  162.8406 O.3     1  UNL1       -0.4455
     24 C         139.5671  140.9718  165.2419 C.3     1  UNL1        0.0513
     25 C         140.0690  139.9198  164.2978 C.3     1  UNL1        0.2089
     26 C         139.2448  139.2751  159.2540 C.3     1  UNL1        0.1407
     27 N         140.5047  138.5682  158.8508 N.3     1  UNL1       -0.2584
     28 C         141.6218  138.4043  159.8384 C.3     1  UNL1        0.1052
     29 C         142.8818  137.6972  159.4351 C.3     1  UNL1        0.1595
     30 O         143.0247  137.1542  158.0442 O.3     1  UNL1       -0.3505
     31 C         141.9077  137.3180  157.0566 C.3     1  UNL1        0.1637
     32 C         140.6477  138.0250  157.4598 C.3     1  UNL1        0.1247
     33 C         139.5307  138.1889  156.4722 C.2     1  UNL1        0.0673
     34 O         138.6928  137.0066  156.0846 O.co2   1  UNL1       -0.5477
     35 O         139.2516  139.5350  155.8722 O.co2   1  UNL1       -0.5477
@<TRIPOS>UNITY_ATOM_ATTR
34 1
charge -1
@<TRIPOS>BOND
     1    24    25    1
     2    25    23    1
     3    23    21    1
     4    21    22    2
     5    21     1    1
     6     1     2    2
     7     2    26    1
     8    26    27    1
     9    27    28    1
    10    28    29    1
    11    29    30    1
    12    30    31    1
    13    31    32    1
    14    32    33    1
    15    33    34   ar
    16    33    35   ar
    17     2     3    1
    18     3     4    1
    19     4    16    1
    20    16    17   ar
    21    17    18   ar
    22    18    19   ar
    23    19    20   ar
    24     4     5    2
    25     5     6    1
    26     6     8    1
    27     8     9   ar
    28     9    10   ar
    29    10    11   ar
    30    11    12    1
    31    11    13   ar
    32    13    14   ar
    33    14    15    1
    34     6     1    1
    35    14     8   ar
    36    32    27    1
    37    20    16   ar
    38     3     7    1
@<TRIPOS>MOLECULE
*****
 35 38 0 0 0
SMALL
GASTEIGER

@<TRIPOS>ATOM
      1 C         140.9762  140.2411  164.4429 C.2     1  UNL1        0.1397
      2 C         140.7971  140.1595  162.9559 C.2     1  UNL1        0.1355
      3 N         140.5758  141.4098  162.1574 N.pl3   1  UNL1       -0.1998
      4 C         140.5337  142.7418  162.8459 C.2     1  UNL1        0.3442
      5 N         140.7128  142.8234  164.3329 N.2     1  UNL1       -0.0580
      6 C         140.9341  141.5731  165.1314 C.3     1  UNL1        0.2692
      7 H         140.4582  141.3562  161.1814 H       1  UNL1        0.2983
      8 C         141.1132  141.6547  166.6185 C.ar    1  UNL1        0.0371
      9 C         139.9767  141.3011  167.5313 C.ar    1  UNL1        0.0030
     10 C         140.1558  141.3828  169.0183 C.ar    1  UNL1        0.0295
     11 C         141.4714  141.8180  169.5925 C.ar    1  UNL1        0.1406
     12 F         141.6505  141.8997  171.0795 F       1  UNL1       -0.2042
     13 C         142.6080  142.1716  168.6797 C.ar    1  UNL1        0.0362
     14 C         142.4288  142.0900  167.1926 C.ar    1  UNL1        0.0372
     15 BR        143.5653  142.4436  166.2798 Br      1  UNL1       -0.0491
     16 C         140.3124  143.9922  162.0473 C.ar    1  UNL1        0.1931
     17 N         139.7440  145.2800  162.5652 N.ar    1  UNL1       -0.2297
     18 C         139.7010  146.2580  161.4287 C.ar    1  UNL1        0.1067
     19 C         140.2429  145.5746  160.2083 C.ar    1  UNL1        0.0577
     20 S         140.6208  144.1742  160.5907 S.2     1  UNL1       -0.0586
     21 C         141.1975  138.9907  165.2415 C.2     1  UNL1        0.3447
     22 O         142.5602  138.6797  165.7856 O.2     1  UNL1       -0.2450
     23 O         140.0560  138.0514  165.4958 O.3     1  UNL1       -0.4455
     24 C         137.8239  138.4937  166.7498 C.3     1  UNL1        0.0513
     25 C         138.6472  138.5664  165.4979 C.3     1  UNL1        0.2089
     26 C         140.8392  138.8274  162.2674 C.3     1  UNL1        0.1407
     27 N         140.9218  138.7588  160.7713 N.3     1  UNL1       -0.2584
     28 C         139.6666  138.6820  159.9536 C.3     1  UNL1        0.1052
     29 C         139.7492  138.6134  158.4574 C.3     1  UNL1        0.1595
     30 O         141.0870  138.6216  157.7789 O.3     1  UNL1       -0.3505
     31 C         142.3421  138.6984  158.5966 C.3     1  UNL1        0.1637
     32 C         142.2596  138.7670  160.0928 C.3     1  UNL1        0.1247
     33 C         143.5147  138.8437  160.9105 C.2     1  UNL1        0.0673
     34 O         144.1145  140.1785  161.2402 O.co2   1  UNL1       -0.5477
     35 O         144.1701  137.5858  161.3984 O.co2   1  UNL1       -0.5477
@<TRIPOS>UNITY_ATOM_ATTR
34 1
charge -1
@<TRIPOS>BOND
     1    24    25    1
     2    25    23    1
     3    23    21    1
     4    21    22    2
     5    21     1    1
     6     1     2    2
     7     2    26    1
     8    26    27    1
     9    27    28    1
    10    28    29    1
    11    29    30    1
    12    30    31    1
    13    31    32    1
    14    32    33    1
    15    33    34   ar
    16    33    35   ar
    17     2     3    1
    18     3     4    1
    19     4    16    1
    20    16    17   ar
    21    17    18   ar
    22    18    19   ar
    23    19    20   ar
    24     4     5    2
    25     5     6    1
    26     6     8    1
    27     8     9   ar
    28     9    10   ar
    29    10    11   ar
    30    11    12    1
    31    11    13   ar
    32    13    14   ar
    33    14    15    1
    34     6     1    1
    35    14     8   ar
    36    32    27    1
    37    20    16   ar
    38     3     7    1
@<TRIPOS>MOLECULE
*****
 35 38 0 0 0
SMALL
GASTEIGER

@<TRIPOS>ATOM
      1 C         141.2529  141.7749  161.9553 C.2     1  UNL1        0.1397
      2 C         141.7475  142.1305  160.5846 C.2     1  UNL1        0.1355
      3 N         141.5846  141.1593  159.4531 N.pl3   1  UNL1       -0.1998
      4 C         140.9270  139.8325  159.6923 C.2     1  UNL1        0.3442
      5 N         140.4324  139.4770  161.0630 N.2     1  UNL1       -0.0580
      6 C         140.5953  140.4482  162.1945 C.3     1  UNL1        0.2692
      7 H         141.9092  141.3927  158.5534 H       1  UNL1        0.2983
      8 C         140.1007  140.0925  163.5653 C.ar    1  UNL1        0.0371
      9 C         141.0404  139.4945  164.5699 C.ar    1  UNL1        0.0030
     10 C         140.5458  139.1388  165.9406 C.ar    1  UNL1        0.0295
     11 C         139.1114  139.3812  166.3067 C.ar    1  UNL1        0.1406
     12 F         138.6168  139.0256  167.6774 F       1  UNL1       -0.2042
     13 C         138.1717  139.9793  165.3021 C.ar    1  UNL1        0.0362
     14 C         138.6664  140.3349  163.9313 C.ar    1  UNL1        0.0372
     15 BR        137.7267  140.9329  162.9266 Br      1  UNL1       -0.0491
     16 C         140.7641  138.8613  158.5608 C.ar    1  UNL1        0.1931
     17 N         139.4724  138.4960  157.8916 N.ar    1  UNL1       -0.2297
     18 C         139.7742  137.4938  156.8170 C.ar    1  UNL1        0.1067
     19 C         141.2526  137.2398  156.8222 C.ar    1  UNL1        0.0577
     20 S         141.8643  138.0850  157.8999 S.2     1  UNL1       -0.0586
     21 C         141.4158  142.7461  163.0867 C.2     1  UNL1        0.3447
     22 O         142.7618  142.9422  163.7189 O.2     1  UNL1       -0.2450
     23 O         140.2326  143.5212  163.5861 O.3     1  UNL1       -0.4455
     24 C         140.2803  142.9214  166.1136 C.3     1  UNL1        0.0513
     25 C         140.1663  143.9454  165.0234 C.3     1  UNL1        0.2089
     26 C         142.4051  143.4573  160.3453 C.3     1  UNL1        0.1407
     27 N         141.9762  144.3090  159.1874 N.3     1  UNL1       -0.2584
     28 C         142.7744  144.3052  157.9174 C.3     1  UNL1        0.1052
     29 C         142.3455  145.1569  156.7595 C.3     1  UNL1        0.1595
     30 O         141.1184  146.0123  156.8716 O.3     1  UNL1       -0.3505
     31 C         140.3202  146.0160  158.1416 C.3     1  UNL1        0.1637
     32 C         140.7491  145.1644  159.2995 C.3     1  UNL1        0.1247
     33 C         139.9509  145.1681  160.5694 C.2     1  UNL1        0.0673
     34 O         138.9065  144.1167  160.8020 O.co2   1  UNL1       -0.5477
     35 O         140.1969  146.2232  161.6068 O.co2   1  UNL1       -0.5477
@<TRIPOS>UNITY_ATOM_ATTR
34 1
charge -1
@<TRIPOS>BOND
     1    24    25    1
     2    25    23    1
     3    23    21    1
     4    21    22    2
     5    21     1    1
     6     1     2    2
     7     2    26    1
     8    26    27    1
     9    27    28    1
    10    28    29    1
    11    29    30    1
    12    30    31    1
    13    31    32    1
    14    32    33    1
    15    33    34   ar
    16    33    35   ar
    17     2     3    1
    18     3     4    1
    19     4    16    1
    20    16    17   ar
    21    17    18   ar
    22    18    19   ar
    23    19    20   ar
    24     4     5    2
    25     5     6    1
    26     6     8    1
    27     8     9   ar
    28     9    10   ar
    29    10    11   ar
    30    11    12    1
    31    11    13   ar
    32    13    14   ar
    33    14    15    1
    34     6     1    1
    35    14     8   ar
    36    32    27    1
    37    20    16   ar
    38     3     7    1
@<TRIPOS>MOLECULE
*****
 35 38 0 0 0
SMALL
GASTEIGER

@<TRIPOS>ATOM
      1 C         142.9279  140.3470  159.4452 C.2     1  UNL1        0.1397
      2 C         143.3032  139.3439  158.3951 C.2     1  UNL1        0.1355
      3 N         144.2985  139.7064  157.3331 N.pl3   1  UNL1       -0.1998
      4 C         144.9187  141.0721  157.3213 C.2     1  UNL1        0.3442
      5 N         144.5435  142.0753  158.3714 N.2     1  UNL1       -0.0580
      6 C         143.5481  141.7127  159.4334 C.3     1  UNL1        0.2692
      7 H         144.5448  139.0480  156.6438 H       1  UNL1        0.2983
      8 C         143.1729  142.7160  160.4836 C.ar    1  UNL1        0.0371
      9 C         143.9890  142.8305  161.7370 C.ar    1  UNL1        0.0030
     10 C         143.6138  143.8336  162.7871 C.ar    1  UNL1        0.0295
     11 C         142.4226  144.7223  162.5840 C.ar    1  UNL1        0.1406
     12 F         142.0474  145.7255  163.6341 F       1  UNL1       -0.2042
     13 C         141.6065  144.6078  161.3306 C.ar    1  UNL1        0.0362
     14 C         141.9817  143.6046  160.2804 C.ar    1  UNL1        0.0372
     15 BR        141.1657  143.4901  159.0270 Br      1  UNL1       -0.0491
     16 C         145.9141  141.4347  156.2593 C.ar    1  UNL1        0.1931
     17 N         145.9544  140.8853  154.8642 N.ar    1  UNL1       -0.2297
     18 C         147.1092  141.5214  154.1486 C.ar    1  UNL1        0.1067
     19 C         147.7826  142.4639  155.1016 C.ar    1  UNL1        0.0577
     20 S         147.0439  142.4104  156.4061 S.2     1  UNL1       -0.0586
     21 C         141.9326  139.9845  160.5072 C.2     1  UNL1        0.3447
     22 O         140.4635  140.1172  160.2349 O.2     1  UNL1       -0.2450
     23 O         142.4062  139.4892  161.8414 O.3     1  UNL1       -0.4455
     24 C         144.5728  139.5446  163.2743 C.3     1  UNL1        0.0513
     25 C         143.8459  139.1148  162.0345 C.3     1  UNL1        0.2089
     26 C         142.6830  137.9781  158.4068 C.3     1  UNL1        0.1407
     27 N         141.7373  137.5744  157.3147 N.3     1  UNL1       -0.2584
     28 C         140.3096  138.0331  157.3513 C.3     1  UNL1        0.1052
     29 C         139.3640  137.6293  156.2591 C.3     1  UNL1        0.1595
     30 O         139.8460  136.7669  155.1305 O.3     1  UNL1       -0.3505
     31 C         141.2737  136.3082  155.0939 C.3     1  UNL1        0.1637
     32 C         142.2193  136.7119  156.1860 C.3     1  UNL1        0.1247
     33 C         143.6470  136.2532  156.1495 C.2     1  UNL1        0.0673
     34 O         144.0029  134.8715  156.6125 O.co2   1  UNL1       -0.5477
     35 O         144.7187  137.1761  155.6500 O.co2   1  UNL1       -0.5477
@<TRIPOS>UNITY_ATOM_ATTR
34 1
charge -1
@<TRIPOS>BOND
     1    24    25    1
     2    25    23    1
     3    23    21    1
     4    21    22    2
     5    21     1    1
     6     1     2    2
     7     2    26    1
     8    26    27    1
     9    27    28    1
    10    28    29    1
    11    29    30    1
    12    30    31    1
    13    31    32    1
    14    32    33    1
    15    33    34   ar
    16    33    35   ar
    17     2     3    1
    18     3     4    1
    19     4    16    1
    20    16    17   ar
    21    17    18   ar
    22    18    19   ar
    23    19    20   ar
    24     4     5    2
    25     5     6    1
    26     6     8    1
    27     8     9   ar
    28     9    10   ar
    29    10    11   ar
    30    11    12    1
    31    11    13   ar
    32    13    14   ar
    33    14    15    1
    34     6     1    1
    35    14     8   ar
    36    32    27    1
    37    20    16   ar
    38     3     7    1
@<TRIPOS>MOLECULE
*****
 35 38 0 0 0
SMALL
GASTEIGER

@<TRIPOS>ATOM
      1 C         139.6862  141.1665  161.0596 C.2     1  UNL1        0.1397
      2 C         139.8446  140.4436  159.7549 C.2     1  UNL1        0.1355
      3 N         139.4484  141.1142  158.4730 N.pl3   1  UNL1       -0.1998
      4 C         138.8937  142.5077  158.4958 C.2     1  UNL1        0.3442
      5 N         138.7353  143.2305  159.8005 N.2     1  UNL1       -0.0580
      6 C         139.1315  142.5599  161.0824 C.3     1  UNL1        0.2692
      7 H         139.5524  140.6398  157.6166 H       1  UNL1        0.2983
      8 C         138.9730  143.2828  162.3872 C.ar    1  UNL1        0.0371
      9 C         137.6917  143.1663  163.1583 C.ar    1  UNL1        0.0030
     10 C         137.5332  143.8892  164.4630 C.ar    1  UNL1        0.0295
     11 C         138.6560  144.7286  164.9966 C.ar    1  UNL1        0.1406
     12 F         138.4975  145.4515  166.3013 F       1  UNL1       -0.2042
     13 C         139.9373  144.8451  164.2255 C.ar    1  UNL1        0.0362
     14 C         140.0958  144.1222  162.9207 C.ar    1  UNL1        0.0372
     15 BR        141.3771  144.2387  162.1496 Br      1  UNL1       -0.0491
     16 C         138.4975  143.1783  157.2139 C.ar    1  UNL1        0.1931
     17 N         139.2326  144.2998  156.5417 N.ar    1  UNL1       -0.2297
     18 C         138.4860  144.6598  155.2914 C.ar    1  UNL1        0.1067
     19 C         137.2896  143.7608  155.1909 C.ar    1  UNL1        0.0577
     20 S         137.2967  142.8451  156.3790 S.2     1  UNL1       -0.0586
     21 C         140.0824  140.4959  162.3415 C.2     1  UNL1        0.3447
     22 O         141.5153  140.5119  162.7846 O.2     1  UNL1       -0.2450
     23 O         139.0456  139.8092  163.1803 O.3     1  UNL1       -0.4455
     24 C         139.2003  137.7190  164.7157 C.3     1  UNL1        0.0513
     25 C         139.0816  138.3188  163.3459 C.3     1  UNL1        0.2089
     26 C         140.3993  139.0501  159.7320 C.3     1  UNL1        0.1407
     27 N         140.9547  138.4847  158.4585 N.3     1  UNL1       -0.2584
     28 C         140.0633  137.7186  157.5265 C.3     1  UNL1        0.1052
     29 C         140.6187  137.1532  156.2529 C.3     1  UNL1        0.1595
     30 O         142.0654  137.3540  155.9114 O.3     1  UNL1       -0.3505
     31 C         142.9568  138.1200  156.8434 C.3     1  UNL1        0.1637
     32 C         142.4014  138.6854  158.1169 C.3     1  UNL1        0.1247
     33 C         143.2928  139.4515  159.0489 C.2     1  UNL1        0.0673
     34 O         144.0499  138.7305  160.1245 O.co2   1  UNL1       -0.5477
     35 O         143.4271  140.9385  158.9052 O.co2   1  UNL1       -0.5477
@<TRIPOS>UNITY_ATOM_ATTR
34 1
charge -1
@<TRIPOS>BOND
     1    24    25    1
     2    25    23    1
     3    23    21    1
     4    21    22    2
     5    21     1    1
     6     1     2    2
     7     2    26    1
     8    26    27    1
     9    27    28    1
    10    28    29    1
    11    29    30    1
    12    30    31    1
    13    31    32    1
    14    32    33    1
    15    33    34   ar
    16    33    35   ar
    17     2     3    1
    18     3     4    1
    19     4    16    1
    20    16    17   ar
    21    17    18   ar
    22    18    19   ar
    23    19    20   ar
    24     4     5    2
    25     5     6    1
    26     6     8    1
    27     8     9   ar
    28     9    10   ar
    29    10    11   ar
    30    11    12    1
    31    11    13   ar
    32    13    14   ar
    33    14    15    1
    34     6     1    1
    35    14     8   ar
    36    32    27    1
    37    20    16   ar
    38     3     7    1
@<TRIPOS>MOLECULE
*****
 35 38 0 0 0
SMALL
GASTEIGER

@<TRIPOS>ATOM
      1 C         142.4698  139.8586  160.2752 C.2     1  UNL1        0.1397
      2 C         143.2325  140.1837  159.0251 C.2     1  UNL1        0.1355
      3 N         143.4058  139.1418  157.9600 N.pl3   1  UNL1       -0.1998
      4 C         142.8165  137.7749  158.1449 C.2     1  UNL1        0.3442
      5 N         142.0539  137.4498  159.3950 N.2     1  UNL1       -0.0580
      6 C         141.8805  138.4917  160.4601 C.3     1  UNL1        0.2692
      7 H         143.9064  139.3552  157.1395 H       1  UNL1        0.2983
      8 C         141.1178  138.1666  161.7102 C.ar    1  UNL1        0.0371
      9 C         141.8446  137.6669  162.9235 C.ar    1  UNL1        0.0030
     10 C         141.0819  137.3418  164.1736 C.ar    1  UNL1        0.0295
     11 C         139.5925  137.5164  164.2103 C.ar    1  UNL1        0.1406
     12 F         138.8299  137.1913  165.4604 F       1  UNL1       -0.2042
     13 C         138.8658  138.0160  162.9970 C.ar    1  UNL1        0.0362
     14 C         139.6285  138.3411  161.7469 C.ar    1  UNL1        0.0372
     15 BR        138.9018  138.8408  160.5335 Br      1  UNL1       -0.0491
     16 C         142.9899  136.7330  157.0798 C.ar    1  UNL1        0.1931
     17 N         143.1464  135.2585  157.3059 N.ar    1  UNL1       -0.2297
     18 C         143.2904  134.5969  155.9674 C.ar    1  UNL1        0.1067
     19 C         143.2229  135.6626  154.9140 C.ar    1  UNL1        0.0577
     20 S         143.0371  136.9828  155.6015 S.2     1  UNL1       -0.0586
     21 C         142.2965  140.9005  161.3403 C.2     1  UNL1        0.3447
     22 O         141.0122  141.6695  161.4352 O.2     1  UNL1       -0.2450
     23 O         143.4074  141.1732  162.3105 O.3     1  UNL1       -0.4455
     24 C         144.8448  139.7281  163.9217 C.3     1  UNL1        0.0513
     25 C         144.4813  140.1488  162.5285 C.3     1  UNL1        0.2089
     26 C         143.8218  141.5506  158.8401 C.3     1  UNL1        0.1407
     27 N         143.4728  142.3599  157.6264 N.3     1  UNL1       -0.2584
     28 C         142.2269  143.1950  157.6146 C.3     1  UNL1        0.1052
     29 C         141.8779  144.0043  156.4007 C.3     1  UNL1        0.1595
     30 O         142.7748  143.9784  155.1988 O.3     1  UNL1       -0.3505
     31 C         144.0207  143.1432  155.2105 C.3     1  UNL1        0.1637
     32 C         144.3697  142.3340  156.4243 C.3     1  UNL1        0.1247
     33 C         145.6157  141.4988  156.4361 C.2     1  UNL1        0.0673
     34 O         146.9462  142.1404  156.6970 O.co2   1  UNL1       -0.5477
     35 O         145.5311  140.0221  156.1869 O.co2   1  UNL1       -0.5477
@<TRIPOS>UNITY_ATOM_ATTR
34 1
charge -1
@<TRIPOS>BOND
     1    24    25    1
     2    25    23    1
     3    23    21    1
     4    21    22    2
     5    21     1    1
     6     1     2    2
     7     2    26    1
     8    26    27    1
     9    27    28    1
    10    28    29    1
    11    29    30    1
    12    30    31    1
    13    31    32    1
    14    32    33    1
    15    33    34   ar
    16    33    35   ar
    17     2     3    1
    18     3     4    1
    19     4    16    1
    20    16    17   ar
    21    17    18   ar
    22    18    19   ar
    23    19    20   ar
    24     4     5    2
    25     5     6    1
    26     6     8    1
    27     8     9   ar
    28     9    10   ar
    29    10    11   ar
    30    11    12    1
    31    11    13   ar
    32    13    14   ar
    33    14    15    1
    34     6     1    1
    35    14     8   ar
    36    32    27    1
    37    20    16   ar
    38     3     7    1
@<TRIPOS>MOLECULE
*****
 35 38 0 0 0
SMALL
GASTEIGER

@<TRIPOS>ATOM
      1 C         141.7580  143.0963  160.4753 C.2     1  UNL1        0.1397
      2 C         142.5917  143.0264  159.2304 C.2     1  UNL1        0.1355
      3 N         142.2403  143.8741  158.0438 N.pl3   1  UNL1       -0.1998
      4 C         141.0551  144.7916  158.1022 C.2     1  UNL1        0.3442
      5 N         140.2214  144.8615  159.3472 N.2     1  UNL1       -0.0580
      6 C         140.5728  144.0138  160.5337 C.3     1  UNL1        0.2692
      7 H         142.7875  143.8282  157.2267 H       1  UNL1        0.2983
      8 C         139.7390  144.0837  161.7787 C.ar    1  UNL1        0.0371
      9 C         140.0985  145.0492  162.8689 C.ar    1  UNL1        0.0030
     10 C         139.2648  145.1192  164.1139 C.ar    1  UNL1        0.0295
     11 C         138.0715  144.2235  164.2687 C.ar    1  UNL1        0.1406
     12 F         137.2377  144.2935  165.5136 F       1  UNL1       -0.2042
     13 C         137.7119  143.2580  163.1785 C.ar    1  UNL1        0.0362
     14 C         138.5457  143.1881  161.9335 C.ar    1  UNL1        0.0372
     15 BR        138.1862  142.2226  160.8433 Br      1  UNL1       -0.0491
     16 C         140.7037  145.6393  156.9156 C.ar    1  UNL1        0.1931
     17 N         139.6546  146.7107  156.8771 N.ar    1  UNL1       -0.2297
     18 C         139.6422  147.2980  155.4969 C.ar    1  UNL1        0.1067
     19 C         140.6836  146.5896  154.6824 C.ar    1  UNL1        0.0577
     20 S         141.3397  145.5645  155.5592 S.2     1  UNL1       -0.0586
     21 C         142.1094  142.2486  161.6619 C.2     1  UNL1        0.3447
     22 O         141.4658  140.9056  161.8412 O.2     1  UNL1       -0.2450
     23 O         143.1044  142.7438  162.6691 O.3     1  UNL1       -0.4455
     24 C         143.6596  145.0908  163.6354 C.3     1  UNL1        0.0513
     25 C         143.7210  144.1019  162.5092 C.3     1  UNL1        0.2089
     26 C         143.7769  142.1088  159.1719 C.3     1  UNL1        0.1407
     27 N         143.6970  140.8291  158.3936 N.3     1  UNL1       -0.2584
     28 C         143.0380  139.6242  158.9970 C.3     1  UNL1        0.1052
     29 C         142.9581  138.3444  158.2186 C.3     1  UNL1        0.1595
     30 O         143.5372  138.2695  156.8369 O.3     1  UNL1       -0.3505
     31 C         144.1962  139.4744  156.2336 C.3     1  UNL1        0.1637
     32 C         144.2762  140.7541  157.0119 C.3     1  UNL1        0.1247
     33 C         144.9352  141.9590  156.4086 C.2     1  UNL1        0.0673
     34 O         144.1063  142.9977  155.7127 O.co2   1  UNL1       -0.5477
     35 O         146.4231  142.1252  156.5011 O.co2   1  UNL1       -0.5477
@<TRIPOS>UNITY_ATOM_ATTR
34 1
charge -1
@<TRIPOS>BOND
     1    24    25    1
     2    25    23    1
     3    23    21    1
     4    21    22    2
     5    21     1    1
     6     1     2    2
     7     2    26    1
     8    26    27    1
     9    27    28    1
    10    28    29    1
    11    29    30    1
    12    30    31    1
    13    31    32    1
    14    32    33    1
    15    33    34   ar
    16    33    35   ar
    17     2     3    1
    18     3     4    1
    19     4    16    1
    20    16    17   ar
    21    17    18   ar
    22    18    19   ar
    23    19    20   ar
    24     4     5    2
    25     5     6    1
    26     6     8    1
    27     8     9   ar
    28     9    10   ar
    29    10    11   ar
    30    11    12    1
    31    11    13   ar
    32    13    14   ar
    33    14    15    1
    34     6     1    1
    35    14     8   ar
    36    32    27    1
    37    20    16   ar
    38     3     7    1
@<TRIPOS>MOLECULE
*****
 35 38 0 0 0
SMALL
GASTEIGER

@<TRIPOS>ATOM
      1 C         140.5348  140.7902  162.3142 C.2     1  UNL1        0.1397
      2 C         139.6657  141.2079  161.1652 C.2     1  UNL1        0.1355
      3 N         139.6970  140.4334  159.8810 N.pl3   1  UNL1       -0.1998
      4 C         140.5973  139.2413  159.7458 C.2     1  UNL1        0.3442
      5 N         141.4663  138.8237  160.8948 N.2     1  UNL1       -0.0580
      6 C         141.4351  139.5982  162.1790 C.3     1  UNL1        0.2692
      7 H         139.1266  140.7075  159.1269 H       1  UNL1        0.2983
      8 C         142.3042  139.1805  163.3281 C.ar    1  UNL1        0.0371
      9 C         141.7496  138.2961  164.4052 C.ar    1  UNL1        0.0030
     10 C         142.6186  137.8784  165.5542 C.ar    1  UNL1        0.0295
     11 C         144.0424  138.3451  165.6261 C.ar    1  UNL1        0.1406
     12 F         144.9115  137.9274  166.7751 F       1  UNL1       -0.2042
     13 C         144.5971  139.2294  164.5490 C.ar    1  UNL1        0.0362
     14 C         143.7280  139.6471  163.3999 C.ar    1  UNL1        0.0372
     15 BR        144.2826  140.5315  162.3228 Br      1  UNL1       -0.0491
     16 C         140.6285  138.4668  158.4616 C.ar    1  UNL1        0.1931
     17 N         139.4419  138.1195  157.6123 N.ar    1  UNL1       -0.2297
     18 C         139.9318  137.3417  156.4270 C.ar    1  UNL1        0.1067
     19 C         141.4213  137.2084  156.5436 C.ar    1  UNL1        0.0577
     20 S         141.8519  137.9038  157.8010 S.2     1  UNL1       -0.0586
     21 C         140.5036  141.5647  163.5984 C.2     1  UNL1        0.3447
     22 O         141.5665  142.5832  163.8861 O.2     1  UNL1       -0.2450
     23 O         139.4094  141.3207  164.5950 O.3     1  UNL1       -0.4455
     24 C         138.1113  139.4207  165.8013 C.3     1  UNL1        0.0513
     25 C         138.6099  140.0529  164.5356 C.3     1  UNL1        0.2089
     26 C         138.7654  142.4000  161.3004 C.3     1  UNL1        0.1407
     27 N         139.2773  143.7687  160.9620 N.3     1  UNL1       -0.2584
     28 C         139.8521  144.0398  159.6033 C.3     1  UNL1        0.1052
     29 C         140.3640  145.4086  159.2649 C.3     1  UNL1        0.1595
     30 O         140.3012  146.5062  160.2853 O.3     1  UNL1       -0.3505
     31 C         139.7264  146.2352  161.6440 C.3     1  UNL1        0.1637
     32 C         139.2145  144.8665  161.9824 C.3     1  UNL1        0.1247
     33 C         138.6397  144.5954  163.3411 C.2     1  UNL1        0.0673
     34 O         139.4446  144.8987  164.5701 O.co2   1  UNL1       -0.5477
     35 O         137.2601  144.0211  163.4710 O.co2   1  UNL1       -0.5477
@<TRIPOS>UNITY_ATOM_ATTR
34 1
charge -1
@<TRIPOS>BOND
     1    24    25    1
     2    25    23    1
     3    23    21    1
     4    21    22    2
     5    21     1    1
     6     1     2    2
     7     2    26    1
     8    26    27    1
     9    27    28    1
    10    28    29    1
    11    29    30    1
    12    30    31    1
    13    31    32    1
    14    32    33    1
    15    33    34   ar
    16    33    35   ar
    17     2     3    1
    18     3     4    1
    19     4    16    1
    20    16    17   ar
    21    17    18   ar
    22    18    19   ar
    23    19    20   ar
    24     4     5    2
    25     5     6    1
    26     6     8    1
    27     8     9   ar
    28     9    10   ar
    29    10    11   ar
    30    11    12    1
    31    11    13   ar
    32    13    14   ar
    33    14    15    1
    34     6     1    1
    35    14     8   ar
    36    32    27    1
    37    20    16   ar
    38     3     7    1
