@<TRIPOS>MOLECULE
*****
 31 34 0 0 0
SMALL
GASTEIGER

@<TRIPOS>ATOM
      1 N         144.4756  141.2046  164.6679 N.3     1  UNL1       -0.3219
      2 C         143.2415  142.0114  164.3920 C.3     1  UNL1        0.0563
      3 C         143.0106  142.5854  163.0255 C.3     1  UNL1        0.0318
      4 C         141.7766  143.3921  162.7495 C.3     1  UNL1        0.0595
      5 C         140.7733  143.6249  163.8400 C.3     1  UNL1        0.0164
      6 C         141.0041  143.0509  165.2065 C.3     1  UNL1        0.0071
      7 C         142.2382  142.2442  165.4825 C.3     1  UNL1        0.0389
      8 H         145.0413  141.1481  163.8210 H       1  UNL1        0.1188
      9 H         144.2089  140.2651  164.9620 H       1  UNL1        0.1188
     10 N         141.5458  143.9661  161.3830 N.3     1  UNL1       -0.2651
     11 C         142.3904  143.7183  160.1685 C.3     1  UNL1        0.1022
     12 C         141.7964  144.4877  159.0260 C.ar    1  UNL1        0.0280
     13 C         142.2024  144.6231  157.5883 C.ar    1  UNL1        0.0988
     14 N         141.3966  145.4818  156.6592 N.ar    1  UNL1       -0.2221
     15 C         140.1849  146.2051  157.1677 C.ar    1  UNL1        0.2349
     16 N         139.7790  146.0697  158.6053 N.ar    1  UNL1       -0.2266
     17 C         140.5847  145.2110  159.5344 C.ar    1  UNL1        0.0756
     18 C         140.4298  144.8886  160.9912 C.3     1  UNL1        0.1187
     19 C         139.3792  147.0639  156.2385 C.3     1  UNL1        0.4523
     20 F         138.5734  147.9226  155.3094 F       1  UNL1       -0.1632
     21 F         139.8550  146.2489  155.0726 F       1  UNL1       -0.1632
     22 F         138.9033  147.8789  157.4044 F       1  UNL1       -0.1632
     23 C         142.4690  141.6702  166.8490 C.ar    1  UNL1        0.0086
     24 C         143.1169  142.5050  167.9135 C.ar    1  UNL1        0.0300
     25 C         143.3477  141.9311  169.2800 C.ar    1  UNL1        0.1672
     26 F         143.9957  142.7660  170.3445 F       1  UNL1       -0.2018
     27 C         142.9307  140.5222  169.5819 C.ar    1  UNL1        0.1696
     28 F         143.1615  139.9483  170.9484 F       1  UNL1       -0.2017
     29 C         142.2828  139.6874  168.5174 C.ar    1  UNL1        0.0612
     30 C         142.0520  140.2614  167.1509 C.ar    1  UNL1        0.1385
     31 F         141.4040  139.4265  166.0864 F       1  UNL1       -0.2044
@<TRIPOS>BOND
     1     2     1    1
     2     2     3    1
     3     3     4    1
     4     4    10    1
     5    10    11    1
     6    11    12    1
     7    12    13   ar
     8    13    14   ar
     9    14    15   ar
    10    15    19    1
    11    19    20    1
    12    19    21    1
    13    19    22    1
    14    15    16   ar
    15    16    17   ar
    16    17    18    1
    17     4     5    1
    18     5     6    1
    19     6     7    1
    20     7    23    1
    21    23    24   ar
    22    24    25   ar
    23    25    26    1
    24    25    27   ar
    25    27    28    1
    26    27    29   ar
    27    29    30   ar
    28    30    31    1
    29     7     2    1
    30    30    23   ar
    31    18    10    1
    32    17    12   ar
    33     1     8    1
    34     1     9    1
@<TRIPOS>MOLECULE
*****
 31 34 0 0 0
SMALL
GASTEIGER

@<TRIPOS>ATOM
      1 N         142.2493  142.1803  165.5821 N.3     1  UNL1       -0.3219
      2 C         142.1352  140.8093  164.9841 C.3     1  UNL1        0.0563
      3 C         142.4188  140.6012  163.5260 C.3     1  UNL1        0.0318
      4 C         142.3048  139.2303  162.9280 C.3     1  UNL1        0.0595
      5 C         141.9072  138.0676  163.7881 C.3     1  UNL1        0.0164
      6 C         141.6236  138.2757  165.2463 C.3     1  UNL1        0.0071
      7 C         141.7376  139.6466  165.8443 C.3     1  UNL1        0.0389
      8 H         142.5272  142.8444  164.8595 H       1  UNL1        0.1188
      9 H         142.9503  142.1708  166.3230 H       1  UNL1        0.1188
     10 N         142.5883  139.0222  161.4698 N.3     1  UNL1       -0.2651
     11 C         143.0903  140.0617  160.5120 C.3     1  UNL1        0.1022
     12 C         143.2319  139.4200  159.1637 C.ar    1  UNL1        0.0280
     13 C         143.6847  139.9578  157.8387 C.ar    1  UNL1        0.0988
     14 N         143.7231  139.0595  156.6381 N.ar    1  UNL1       -0.2221
     15 C         143.3085  137.6232  156.7625 C.ar    1  UNL1        0.2349
     16 N         142.8557  137.0854  158.0875 N.ar    1  UNL1       -0.2266
     17 C         142.8174  137.9838  159.2881 C.ar    1  UNL1        0.0756
     18 C         142.4197  137.7379  160.7133 C.3     1  UNL1        0.1187
     19 C         143.3469  136.7249  155.5618 C.3     1  UNL1        0.4523
     20 F         143.3851  135.8265  154.3612 F       1  UNL1       -0.1632
     21 F         144.8122  137.0020  155.4012 F       1  UNL1       -0.1632
     22 F         141.8815  136.4477  155.7225 F       1  UNL1       -0.1632
     23 C         141.4541  139.8547  167.3025 C.ar    1  UNL1        0.0086
     24 C         142.5714  139.7869  168.3010 C.ar    1  UNL1        0.0300
     25 C         142.2878  139.9950  169.7591 C.ar    1  UNL1        0.1672
     26 F         143.4052  139.9271  170.7576 F       1  UNL1       -0.2018
     27 C         140.8870  140.2710  170.2188 C.ar    1  UNL1        0.1696
     28 F         140.6034  140.4792  171.6770 F       1  UNL1       -0.2017
     29 C         139.7697  140.3389  169.2204 C.ar    1  UNL1        0.0612
     30 C         140.0532  140.1308  167.7622 C.ar    1  UNL1        0.1385
     31 F         138.9358  140.1986  166.7637 F       1  UNL1       -0.2044
@<TRIPOS>BOND
     1     2     1    1
     2     2     3    1
     3     3     4    1
     4     4    10    1
     5    10    11    1
     6    11    12    1
     7    12    13   ar
     8    13    14   ar
     9    14    15   ar
    10    15    19    1
    11    19    20    1
    12    19    21    1
    13    19    22    1
    14    15    16   ar
    15    16    17   ar
    16    17    18    1
    17     4     5    1
    18     5     6    1
    19     6     7    1
    20     7    23    1
    21    23    24   ar
    22    24    25   ar
    23    25    26    1
    24    25    27   ar
    25    27    28    1
    26    27    29   ar
    27    29    30   ar
    28    30    31    1
    29     7     2    1
    30    30    23   ar
    31    18    10    1
    32    17    12   ar
    33     1     8    1
    34     1     9    1
@<TRIPOS>MOLECULE
*****
 31 34 0 0 0
SMALL
GASTEIGER

@<TRIPOS>ATOM
      1 N         142.7789  140.7286  165.6817 N.3     1  UNL1       -0.3219
      2 C         141.8422  141.8064  165.2223 C.3     1  UNL1        0.0563
      3 C         141.9028  142.2995  163.8070 C.3     1  UNL1        0.0318
      4 C         140.9661  143.3773  163.3476 C.3     1  UNL1        0.0595
      5 C         139.9690  143.9619  164.3035 C.3     1  UNL1        0.0164
      6 C         139.9084  143.4688  165.7188 C.3     1  UNL1        0.0071
      7 C         140.8451  142.3910  166.1782 C.3     1  UNL1        0.0389
      8 H         143.3828  140.4504  164.9081 H       1  UNL1        0.1188
      9 H         142.2404  139.9227  165.9994 H       1  UNL1        0.1188
     10 N         141.0267  143.8704  161.9322 N.3     1  UNL1       -0.2651
     11 C         142.0749  143.5165  160.9193 C.3     1  UNL1        0.1022
     12 C         141.7456  144.2314  159.6424 C.ar    1  UNL1        0.0280
     13 C         142.4239  144.2605  158.3048 C.ar    1  UNL1        0.0988
     14 N         141.8505  145.0855  157.1910 N.ar    1  UNL1       -0.2221
     15 C         140.5988  145.8812  157.4147 C.ar    1  UNL1        0.2349
     16 N         139.9205  145.8520  158.7523 N.ar    1  UNL1       -0.2266
     17 C         140.4940  145.0271  159.8661 C.ar    1  UNL1        0.0756
     18 C         140.0496  144.8040  161.2813 C.3     1  UNL1        0.1187
     19 C         140.0254  146.7062  156.3008 C.3     1  UNL1        0.4523
     20 F         139.4519  147.5311  155.1870 F       1  UNL1       -0.1632
     21 F         140.8659  145.9547  155.3115 F       1  UNL1       -0.1632
     22 F         139.1849  147.4577  157.2901 F       1  UNL1       -0.1632
     23 C         140.7845  141.8979  167.5936 C.ar    1  UNL1        0.0086
     24 C         141.6448  142.5319  168.6461 C.ar    1  UNL1        0.0300
     25 C         141.5843  142.0388  170.0614 C.ar    1  UNL1        0.1672
     26 F         142.4447  142.6728  171.1140 F       1  UNL1       -0.2018
     27 C         140.6635  140.9116  170.4242 C.ar    1  UNL1        0.1696
     28 F         140.6030  140.4185  171.8396 F       1  UNL1       -0.2017
     29 C         139.8032  140.2777  169.3717 C.ar    1  UNL1        0.0612
     30 C         139.8637  140.7708  167.9563 C.ar    1  UNL1        0.1385
     31 F         139.0034  140.1367  166.9038 F       1  UNL1       -0.2044
@<TRIPOS>BOND
     1     2     1    1
     2     2     3    1
     3     3     4    1
     4     4    10    1
     5    10    11    1
     6    11    12    1
     7    12    13   ar
     8    13    14   ar
     9    14    15   ar
    10    15    19    1
    11    19    20    1
    12    19    21    1
    13    19    22    1
    14    15    16   ar
    15    16    17   ar
    16    17    18    1
    17     4     5    1
    18     5     6    1
    19     6     7    1
    20     7    23    1
    21    23    24   ar
    22    24    25   ar
    23    25    26    1
    24    25    27   ar
    25    27    28    1
    26    27    29   ar
    27    29    30   ar
    28    30    31    1
    29     7     2    1
    30    30    23   ar
    31    18    10    1
    32    17    12   ar
    33     1     8    1
    34     1     9    1
@<TRIPOS>MOLECULE
*****
 31 34 0 0 0
SMALL
GASTEIGER

@<TRIPOS>ATOM
      1 N         140.4628  142.0294  165.1340 N.3     1  UNL1       -0.3219
      2 C         141.5319  141.0619  164.7201 C.3     1  UNL1        0.0563
      3 C         141.6926  140.6951  163.2746 C.3     1  UNL1        0.0318
      4 C         142.7615  139.7276  162.8606 C.3     1  UNL1        0.0595
      5 C         143.6697  139.1270  163.8923 C.3     1  UNL1        0.0164
      6 C         143.5090  139.4938  165.3378 C.3     1  UNL1        0.0071
      7 C         142.4401  140.4612  165.7517 C.3     1  UNL1        0.0389
      8 H         139.9439  142.3352  164.3109 H       1  UNL1        0.1188
      9 H         140.8917  142.8374  165.5852 H       1  UNL1        0.1188
     10 N         142.9222  139.3609  161.4151 N.3     1  UNL1       -0.2651
     11 C         143.3314  140.2891  160.3101 C.3     1  UNL1        0.1022
     12 C         143.3641  139.5034  159.0328 C.ar    1  UNL1        0.0280
     13 C         143.6978  139.8927  157.6232 C.ar    1  UNL1        0.0988
     14 N         143.6424  138.8681  156.5291 N.ar    1  UNL1       -0.2221
     15 C         143.2534  137.4542  156.8446 C.ar    1  UNL1        0.2349
     16 N         142.9197  137.0649  158.2542 N.ar    1  UNL1       -0.2266
     17 C         142.9750  138.0895  159.3483 C.ar    1  UNL1        0.0756
     18 C         142.7019  138.0014  160.8206 C.3     1  UNL1        0.1187
     19 C         143.1980  136.4296  155.7504 C.3     1  UNL1        0.4523
     20 F         143.1427  135.4050  154.6563 F       1  UNL1       -0.1632
     21 F         144.5955  136.7904  155.3418 F       1  UNL1       -0.1632
     22 F         141.8006  136.0688  156.1590 F       1  UNL1       -0.1632
     23 C         142.2793  140.8280  167.1973 C.ar    1  UNL1        0.0086
     24 C         141.4230  139.9843  168.0944 C.ar    1  UNL1        0.0300
     25 C         141.2623  140.3511  169.5400 C.ar    1  UNL1        0.1672
     26 F         140.4060  139.5073  170.4371 F       1  UNL1       -0.2018
     27 C         141.9579  141.5616  170.0884 C.ar    1  UNL1        0.1696
     28 F         141.7972  141.9283  171.5340 F       1  UNL1       -0.2017
     29 C         142.8142  142.4053  169.1913 C.ar    1  UNL1        0.0612
     30 C         142.9749  142.0385  167.7457 C.ar    1  UNL1        0.1385
     31 F         143.8313  142.8823  166.8486 F       1  UNL1       -0.2044
@<TRIPOS>BOND
     1     2     1    1
     2     2     3    1
     3     3     4    1
     4     4    10    1
     5    10    11    1
     6    11    12    1
     7    12    13   ar
     8    13    14   ar
     9    14    15   ar
    10    15    19    1
    11    19    20    1
    12    19    21    1
    13    19    22    1
    14    15    16   ar
    15    16    17   ar
    16    17    18    1
    17     4     5    1
    18     5     6    1
    19     6     7    1
    20     7    23    1
    21    23    24   ar
    22    24    25   ar
    23    25    26    1
    24    25    27   ar
    25    27    28    1
    26    27    29   ar
    27    29    30   ar
    28    30    31    1
    29     7     2    1
    30    30    23   ar
    31    18    10    1
    32    17    12   ar
    33     1     8    1
    34     1     9    1
@<TRIPOS>MOLECULE
*****
 31 34 0 0 0
SMALL
GASTEIGER

@<TRIPOS>ATOM
      1 N         142.1664  140.2173  164.6990 N.3     1  UNL1       -0.3219
      2 C         141.5322  141.5460  164.4115 C.3     1  UNL1        0.0563
      3 C         141.2866  141.9686  162.9934 C.3     1  UNL1        0.0318
      4 C         140.6525  143.2972  162.7059 C.3     1  UNL1        0.0595
      5 C         140.2640  144.2031  163.8364 C.3     1  UNL1        0.0164
      6 C         140.5096  143.7805  165.2546 C.3     1  UNL1        0.0071
      7 C         141.1437  142.4519  165.5421 C.3     1  UNL1        0.0389
      8 H         142.3630  139.7373  163.8208 H       1  UNL1        0.1188
      9 H         141.5304  139.6515  165.2608 H       1  UNL1        0.1188
     10 N         140.4068  143.7198  161.2877 N.3     1  UNL1       -0.2651
     11 C         139.8687  142.8513  160.1895 C.3     1  UNL1        0.1022
     12 C         139.7855  143.6799  158.9419 C.ar    1  UNL1        0.0280
     13 C         139.3294  143.3555  157.5502 C.ar    1  UNL1        0.0988
     14 N         139.3600  144.4119  156.4857 N.ar    1  UNL1       -0.2221
     15 C         139.8467  145.7925  156.8129 C.ar    1  UNL1        0.2349
     16 N         140.3028  146.1168  158.2045 N.ar    1  UNL1       -0.2266
     17 C         140.2722  145.0605  159.2690 C.ar    1  UNL1        0.0756
     18 C         140.6562  145.0852  160.7188 C.3     1  UNL1        0.1187
     19 C         139.8773  146.8488  155.7482 C.3     1  UNL1        0.4523
     20 F         139.9079  147.9051  154.6837 F       1  UNL1       -0.1632
     21 F         140.8866  146.0468  154.9814 F       1  UNL1       -0.1632
     22 F         138.8681  147.6508  156.5151 F       1  UNL1       -0.1632
     23 C         141.3894  142.0293  166.9602 C.ar    1  UNL1        0.0086
     24 C         140.2770  141.4281  167.7670 C.ar    1  UNL1        0.0300
     25 C         140.5226  141.0055  169.1851 C.ar    1  UNL1        0.1672
     26 F         139.4101  140.4042  169.9920 F       1  UNL1       -0.2018
     27 C         141.8807  141.1841  169.7964 C.ar    1  UNL1        0.1696
     28 F         142.1263  140.7614  171.2146 F       1  UNL1       -0.2017
     29 C         142.9931  141.7853  168.9896 C.ar    1  UNL1        0.0612
     30 C         142.7474  142.2079  167.5715 C.ar    1  UNL1        0.1385
     31 F         143.8599  142.8092  166.7647 F       1  UNL1       -0.2044
@<TRIPOS>BOND
     1     2     1    1
     2     2     3    1
     3     3     4    1
     4     4    10    1
     5    10    11    1
     6    11    12    1
     7    12    13   ar
     8    13    14   ar
     9    14    15   ar
    10    15    19    1
    11    19    20    1
    12    19    21    1
    13    19    22    1
    14    15    16   ar
    15    16    17   ar
    16    17    18    1
    17     4     5    1
    18     5     6    1
    19     6     7    1
    20     7    23    1
    21    23    24   ar
    22    24    25   ar
    23    25    26    1
    24    25    27   ar
    25    27    28    1
    26    27    29   ar
    27    29    30   ar
    28    30    31    1
    29     7     2    1
    30    30    23   ar
    31    18    10    1
    32    17    12   ar
    33     1     8    1
    34     1     9    1
@<TRIPOS>MOLECULE
*****
 31 34 0 0 0
SMALL
GASTEIGER

@<TRIPOS>ATOM
      1 N         142.7532  139.3715  166.9066 N.3     1  UNL1       -0.3219
      2 C         141.7695  139.7556  165.8413 C.3     1  UNL1        0.0563
      3 C         141.9576  139.2671  164.4355 C.3     1  UNL1        0.0318
      4 C         140.9740  139.6511  163.3702 C.3     1  UNL1        0.0595
      5 C         139.8024  140.5237  163.7106 C.3     1  UNL1        0.0164
      6 C         139.6143  141.0121  165.1163 C.3     1  UNL1        0.0071
      7 C         140.5979  140.6281  166.1816 C.3     1  UNL1        0.0389
      8 H         143.4795  138.7807  166.5018 H       1  UNL1        0.1188
      9 H         142.2714  138.8597  167.6458 H       1  UNL1        0.1188
     10 N         141.1621  139.1627  161.9645 N.3     1  UNL1       -0.2651
     11 C         140.1472  139.2361  160.8624 C.3     1  UNL1        0.1022
     12 C         140.7560  138.6338  159.6308 C.ar    1  UNL1        0.0280
     13 C         140.2233  138.4336  158.2430 C.ar    1  UNL1        0.0988
     14 N         141.0817  137.7878  157.1961 N.ar    1  UNL1       -0.2221
     15 C         142.4728  137.3421  157.5371 C.ar    1  UNL1        0.2349
     16 N         143.0055  137.5423  158.9249 N.ar    1  UNL1       -0.2266
     17 C         142.1470  138.1882  159.9718 C.ar    1  UNL1        0.0756
     18 C         142.3980  138.5150  161.4141 C.3     1  UNL1        0.1187
     19 C         143.3312  136.6963  156.4901 C.3     1  UNL1        0.4523
     20 F         144.1896  136.0504  155.4432 F       1  UNL1       -0.1632
     21 F         143.7903  138.0488  156.0321 F       1  UNL1       -0.1632
     22 F         142.8721  135.3437  156.9482 F       1  UNL1       -0.1632
     23 C         140.4098  141.1166  167.5873 C.ar    1  UNL1        0.0086
     24 C         141.1624  142.3210  168.0698 C.ar    1  UNL1        0.0300
     25 C         140.9744  142.8095  169.4755 C.ar    1  UNL1        0.1672
     26 F         141.7271  144.0140  169.9580 F       1  UNL1       -0.2018
     27 C         140.0337  142.0935  170.3988 C.ar    1  UNL1        0.1696
     28 F         139.8456  142.5820  171.8045 F       1  UNL1       -0.2017
     29 C         139.2811  140.8890  169.9163 C.ar    1  UNL1        0.0612
     30 C         139.4691  140.4006  168.5106 C.ar    1  UNL1        0.1385
     31 F         138.7164  139.1961  168.0281 F       1  UNL1       -0.2044
@<TRIPOS>BOND
     1     2     1    1
     2     2     3    1
     3     3     4    1
     4     4    10    1
     5    10    11    1
     6    11    12    1
     7    12    13   ar
     8    13    14   ar
     9    14    15   ar
    10    15    19    1
    11    19    20    1
    12    19    21    1
    13    19    22    1
    14    15    16   ar
    15    16    17   ar
    16    17    18    1
    17     4     5    1
    18     5     6    1
    19     6     7    1
    20     7    23    1
    21    23    24   ar
    22    24    25   ar
    23    25    26    1
    24    25    27   ar
    25    27    28    1
    26    27    29   ar
    27    29    30   ar
    28    30    31    1
    29     7     2    1
    30    30    23   ar
    31    18    10    1
    32    17    12   ar
    33     1     8    1
    34     1     9    1
@<TRIPOS>MOLECULE
*****
 31 34 0 0 0
SMALL
GASTEIGER

@<TRIPOS>ATOM
      1 N         140.0082  139.1706  165.7453 N.3     1  UNL1       -0.3219
      2 C         141.2258  139.6455  165.0090 C.3     1  UNL1        0.0563
      3 C         141.4184  139.2836  163.5661 C.3     1  UNL1        0.0318
      4 C         142.6358  139.7586  162.8298 C.3     1  UNL1        0.0595
      5 C         143.6607  140.5953  163.5364 C.3     1  UNL1        0.0164
      6 C         143.4682  140.9572  164.9793 C.3     1  UNL1        0.0071
      7 C         142.2507  140.4823  165.7156 C.3     1  UNL1        0.0389
      8 H         139.4242  138.6192  165.1166 H       1  UNL1        0.1188
      9 H         139.4795  139.9750  166.0826 H       1  UNL1        0.1188
     10 N         142.8284  139.3967  161.3869 N.3     1  UNL1       -0.2651
     11 C         143.2640  140.3281  160.2949 C.3     1  UNL1        0.1022
     12 C         143.3240  139.5469  159.0157 C.ar    1  UNL1        0.0280
     13 C         143.6901  139.9407  157.6154 C.ar    1  UNL1        0.0988
     14 N         143.6576  138.9201  156.5166 N.ar    1  UNL1       -0.2221
     15 C         143.2590  137.5058  156.8182 C.ar    1  UNL1        0.2349
     16 N         142.8930  137.1121  158.2185 N.ar    1  UNL1       -0.2266
     17 C         142.9255  138.1326  159.3173 C.ar    1  UNL1        0.0756
     18 C         142.6192  138.0398  160.7827 C.3     1  UNL1        0.1187
     19 C         143.2265  136.4853  155.7193 C.3     1  UNL1        0.4523
     20 F         143.1941  135.4648  154.6204 F       1  UNL1       -0.1632
     21 F         141.8367  136.0929  156.1247 F       1  UNL1       -0.1632
     22 F         144.6164  136.8776  155.3139 F       1  UNL1       -0.1632
     23 C         142.0581  140.8442  167.1585 C.ar    1  UNL1        0.0086
     24 C         141.4144  142.1485  167.5252 C.ar    1  UNL1        0.0300
     25 C         141.2218  142.5104  168.9681 C.ar    1  UNL1        0.1672
     26 F         140.5781  143.8147  169.3347 F       1  UNL1       -0.2018
     27 C         141.6730  141.5680  170.0443 C.ar    1  UNL1        0.1696
     28 F         141.4804  141.9299  171.4872 F       1  UNL1       -0.2017
     29 C         142.3166  140.2637  169.6777 C.ar    1  UNL1        0.0612
     30 C         142.5092  139.9018  168.2348 C.ar    1  UNL1        0.1385
     31 F         143.1530  138.5975  167.8681 F       1  UNL1       -0.2044
@<TRIPOS>BOND
     1     2     1    1
     2     2     3    1
     3     3     4    1
     4     4    10    1
     5    10    11    1
     6    11    12    1
     7    12    13   ar
     8    13    14   ar
     9    14    15   ar
    10    15    19    1
    11    19    20    1
    12    19    21    1
    13    19    22    1
    14    15    16   ar
    15    16    17   ar
    16    17    18    1
    17     4     5    1
    18     5     6    1
    19     6     7    1
    20     7    23    1
    21    23    24   ar
    22    24    25   ar
    23    25    26    1
    24    25    27   ar
    25    27    28    1
    26    27    29   ar
    27    29    30   ar
    28    30    31    1
    29     7     2    1
    30    30    23   ar
    31    18    10    1
    32    17    12   ar
    33     1     8    1
    34     1     9    1
@<TRIPOS>MOLECULE
*****
 31 34 0 0 0
SMALL
GASTEIGER

@<TRIPOS>ATOM
      1 N         147.1352  143.4044  157.5675 N.3     1  UNL1       -0.3219
      2 C         146.3083  142.2636  157.0529 C.3     1  UNL1        0.0563
      3 C         145.1782  141.7241  157.8788 C.3     1  UNL1        0.0318
      4 C         144.3513  140.5833  157.3642 C.3     1  UNL1        0.0595
      5 C         144.6544  139.9820  156.0239 C.3     1  UNL1        0.0164
      6 C         145.7845  140.5215  155.1981 C.3     1  UNL1        0.0071
      7 C         146.6114  141.6623  155.7126 C.3     1  UNL1        0.0389
      8 H         146.7922  143.6859  158.4860 H       1  UNL1        0.1188
      9 H         147.0666  144.1920  156.9230 H       1  UNL1        0.1188
     10 N         143.2213  140.0438  158.1901 N.3     1  UNL1       -0.2651
     11 C         141.8325  139.7550  157.7025 C.3     1  UNL1        0.1022
     12 C         141.0345  139.2311  158.8595 C.ar    1  UNL1        0.0280
     13 C         139.6081  138.7813  158.9733 C.ar    1  UNL1        0.0988
     14 N         139.0773  138.2967  160.2898 N.ar    1  UNL1       -0.2221
     15 C         139.9729  138.2617  161.4926 C.ar    1  UNL1        0.2349
     16 N         141.3994  138.7114  161.3788 N.ar    1  UNL1       -0.2266
     17 C         141.9301  139.1961  160.0623 C.ar    1  UNL1        0.0756
     18 C         143.2816  139.6984  159.6485 C.3     1  UNL1        0.1187
     19 C         139.4421  137.7770  162.8091 C.3     1  UNL1        0.4523
     20 F         138.9113  137.2922  164.1257 F       1  UNL1       -0.1632
     21 F         138.1668  138.5303  162.5724 F       1  UNL1       -0.1632
     22 F         140.7174  137.0236  163.0459 F       1  UNL1       -0.1632
     23 C         147.7414  142.2018  154.8868 C.ar    1  UNL1        0.0086
     24 C         149.1310  141.6706  155.0790 C.ar    1  UNL1        0.0300
     25 C         150.2610  142.2101  154.2531 C.ar    1  UNL1        0.1672
     26 F         151.6506  141.6789  154.4454 F       1  UNL1       -0.2018
     27 C         150.0015  143.2808  153.2352 C.ar    1  UNL1        0.1696
     28 F         151.1315  143.8203  152.4093 F       1  UNL1       -0.2017
     29 C         148.6119  143.8119  153.0430 C.ar    1  UNL1        0.0612
     30 C         147.4819  143.2724  153.8688 C.ar    1  UNL1        0.1385
     31 F         146.0923  143.8036  153.6766 F       1  UNL1       -0.2044
@<TRIPOS>BOND
     1     2     1    1
     2     2     3    1
     3     3     4    1
     4     4    10    1
     5    10    11    1
     6    11    12    1
     7    12    13   ar
     8    13    14   ar
     9    14    15   ar
    10    15    19    1
    11    19    20    1
    12    19    21    1
    13    19    22    1
    14    15    16   ar
    15    16    17   ar
    16    17    18    1
    17     4     5    1
    18     5     6    1
    19     6     7    1
    20     7    23    1
    21    23    24   ar
    22    24    25   ar
    23    25    26    1
    24    25    27   ar
    25    27    28    1
    26    27    29   ar
    27    29    30   ar
    28    30    31    1
    29     7     2    1
    30    30    23   ar
    31    18    10    1
    32    17    12   ar
    33     1     8    1
    34     1     9    1
@<TRIPOS>MOLECULE
*****
 31 34 0 0 0
SMALL
GASTEIGER

@<TRIPOS>ATOM
      1 N         140.3803  139.1015  165.3778 N.3     1  UNL1       -0.3219
      2 C         141.5091  139.9963  164.9591 C.3     1  UNL1        0.0563
      3 C         141.9137  140.0682  163.5165 C.3     1  UNL1        0.0318
      4 C         143.0424  140.9629  163.0978 C.3     1  UNL1        0.0595
      5 C         143.7666  141.7858  164.1217 C.3     1  UNL1        0.0164
      6 C         143.3620  141.7139  165.5643 C.3     1  UNL1        0.0071
      7 C         142.2333  140.8192  165.9830 C.3     1  UNL1        0.0389
      8 H         140.0061  138.6208  164.5597 H       1  UNL1        0.1188
      9 H         139.6447  139.6613  165.8091 H       1  UNL1        0.1188
     10 N         143.4470  141.0348  161.6552 N.3     1  UNL1       -0.2651
     11 C         143.8087  142.2805  160.9019 C.3     1  UNL1        0.1022
     12 C         144.1462  141.8892  159.4937 C.ar    1  UNL1        0.0280
     13 C         144.5732  142.6952  158.3030 C.ar    1  UNL1        0.0988
     14 N         144.8469  142.0137  156.9951 N.ar    1  UNL1       -0.2221
     15 C         144.6937  140.5262  156.8780 C.ar    1  UNL1        0.2349
     16 N         144.2667  139.7201  158.0688 N.ar    1  UNL1       -0.2266
     17 C         143.9930  140.4017  159.3766 C.ar    1  UNL1        0.0756
     18 C         143.5609  139.8736  160.7125 C.3     1  UNL1        0.1187
     19 C         144.9675  139.8446  155.5701 C.3     1  UNL1        0.4523
     20 F         145.2412  139.1631  154.2622 F       1  UNL1       -0.1632
     21 F         146.3399  140.4493  155.5423 F       1  UNL1       -0.1632
     22 F         143.5951  139.2400  155.5979 F       1  UNL1       -0.1632
     23 C         141.8287  140.7473  167.4257 C.ar    1  UNL1        0.0086
     24 C         140.9200  141.7919  168.0027 C.ar    1  UNL1        0.0300
     25 C         140.5154  141.7200  169.4453 C.ar    1  UNL1        0.1672
     26 F         139.6067  142.7647  170.0224 F       1  UNL1       -0.2018
     27 C         141.0195  140.6035  170.3109 C.ar    1  UNL1        0.1696
     28 F         140.6149  140.5316  171.7535 F       1  UNL1       -0.2017
     29 C         141.9282  139.5589  169.7338 C.ar    1  UNL1        0.0612
     30 C         142.3328  139.6308  168.2912 C.ar    1  UNL1        0.1385
     31 F         143.2415  138.5861  167.7142 F       1  UNL1       -0.2044
@<TRIPOS>BOND
     1     2     1    1
     2     2     3    1
     3     3     4    1
     4     4    10    1
     5    10    11    1
     6    11    12    1
     7    12    13   ar
     8    13    14   ar
     9    14    15   ar
    10    15    19    1
    11    19    20    1
    12    19    21    1
    13    19    22    1
    14    15    16   ar
    15    16    17   ar
    16    17    18    1
    17     4     5    1
    18     5     6    1
    19     6     7    1
    20     7    23    1
    21    23    24   ar
    22    24    25   ar
    23    25    26    1
    24    25    27   ar
    25    27    28    1
    26    27    29   ar
    27    29    30   ar
    28    30    31    1
    29     7     2    1
    30    30    23   ar
    31    18    10    1
    32    17    12   ar
    33     1     8    1
    34     1     9    1
