@<TRIPOS>MOLECULE
*****
 32 34 0 0 0
SMALL
GASTEIGER

@<TRIPOS>ATOM
      1 N         141.8884  141.0417  166.2552 N.am    1  UNL1       -0.3005
      2 C         141.9105  140.1029  167.4249 C.2     1  UNL1        0.2474
      3 O         143.1255  139.2643  167.6906 O.2     1  UNL1       -0.2701
      4 H         141.0910  141.5921  166.0808 H       1  UNL1        0.1498
      5 C         140.7177  140.0028  168.3288 C.ar    1  UNL1        0.0727
      6 C         140.8633  140.2787  169.7960 C.ar    1  UNL1        0.0109
      7 C         139.6704  140.1785  170.7000 C.ar    1  UNL1        0.0579
      8 C         138.3320  139.8025  170.1367 C.ar    1  UNL1        0.2249
      9 N         138.1864  139.5267  168.6695 N.ar    1  UNL1       -0.2100
     10 C         139.3793  139.6268  167.7655 C.ar    1  UNL1        0.1065
     11 O         137.1392  139.7024  171.0406 O.3     1  UNL1       -0.4599
     12 C         136.2942  138.4630  171.0328 C.3     1  UNL1        0.2159
     13 C         135.4673  138.1115  172.2339 C.3     1  UNL1        0.1505
     14 C         135.7451  136.8471  172.9917 C.3     1  UNL1        0.4014
     15 F         136.0229  135.5827  173.7494 F       1  UNL1       -0.1699
     16 F         134.3203  136.8144  173.4595 F       1  UNL1       -0.1699
     17 F         137.1699  136.8798  172.5239 F       1  UNL1       -0.1699
     18 C         143.0813  141.1419  165.3512 C.3     1  UNL1        0.0944
     19 C         143.0199  140.5770  163.9630 C.3     1  UNL1        0.0476
     20 C         140.6673  140.1421  162.9500 C.ar    1  UNL1       -0.0009
     21 C         139.5699  139.1906  162.5753 C.ar    1  UNL1       -0.0002
     22 C         139.7277  137.7225  162.8391 C.ar    1  UNL1       -0.0000
     23 C         140.9829  137.2058  163.4775 C.ar    1  UNL1       -0.0003
     24 C         142.0802  138.1573  163.8521 C.ar    1  UNL1       -0.0042
     25 C         141.9224  139.6255  163.5884 C.ar    1  UNL1       -0.0204
     26 C         140.0361  146.0148  161.8949 C.3     1  UNL1        0.0737
     27 C         140.1939  144.5467  162.1587 C.ar    1  UNL1        0.1396
     28 N         139.7095  143.9606  163.4517 N.ar    1  UNL1       -0.2291
     29 C         139.8673  142.4924  163.7154 C.ar    1  UNL1        0.1017
     30 C         140.5095  141.6103  162.6862 C.ar    1  UNL1        0.0380
     31 C         140.9939  142.1963  161.3932 C.ar    1  UNL1        0.1017
     32 N         140.8361  143.6645  161.1294 N.ar    1  UNL1       -0.2291
@<TRIPOS>BOND
     1    26    27    1
     2    27    28   ar
     3    28    29   ar
     4    29    30   ar
     5    30    20    1
     6    20    21   ar
     7    21    22   ar
     8    22    23   ar
     9    23    24   ar
    10    24    25   ar
    11    25    19    1
    12    19    18    1
    13    18     1    1
    14     1     2   am
    15     2     3    2
    16     2     5    1
    17     5     6   ar
    18     6     7   ar
    19     7     8   ar
    20     8    11    1
    21    11    12    1
    22    12    13    1
    23    13    14    1
    24    14    15    1
    25    14    16    1
    26    14    17    1
    27     8     9   ar
    28     9    10   ar
    29    30    31   ar
    30    31    32   ar
    31    32    27   ar
    32    25    20   ar
    33    10     5   ar
    34     1     4    1
@<TRIPOS>MOLECULE
*****
 32 34 0 0 0
SMALL
GASTEIGER

@<TRIPOS>ATOM
      1 N         140.6610  139.0971  165.0145 N.am    1  UNL1       -0.3005
      2 C         139.2120  139.3451  165.3128 C.2     1  UNL1        0.2474
      3 O         138.2602  139.6616  164.1974 O.2     1  UNL1       -0.2701
      4 H         141.2857  138.8893  165.7466 H       1  UNL1        0.1498
      5 C         138.7149  139.2767  166.7263 C.ar    1  UNL1        0.0727
      6 C         137.5204  138.4333  167.0613 C.ar    1  UNL1        0.0109
      7 C         137.0233  138.3649  168.4748 C.ar    1  UNL1        0.0579
      8 C         137.7205  139.1398  169.5534 C.ar    1  UNL1        0.2249
      9 N         138.9149  139.9831  169.2185 N.ar    1  UNL1       -0.2100
     10 C         139.4121  140.0516  167.8049 C.ar    1  UNL1        0.1065
     11 O         137.2234  139.0713  170.9669 O.3     1  UNL1       -0.4599
     12 C         136.1216  138.1200  171.3293 C.3     1  UNL1        0.2159
     13 C         136.3461  137.0804  172.3870 C.3     1  UNL1        0.1505
     14 C         135.2372  136.7185  173.3303 C.3     1  UNL1        0.4014
     15 F         134.1285  136.3567  174.2735 F       1  UNL1       -0.1699
     16 F         134.4587  137.9171  172.8749 F       1  UNL1       -0.1699
     17 F         136.0158  135.5200  173.7857 F       1  UNL1       -0.1699
     18 C         141.1582  139.1655  163.6009 C.3     1  UNL1        0.0944
     19 C         141.6261  140.4725  163.0329 C.3     1  UNL1        0.0476
     20 C         143.0030  142.3069  164.2533 C.ar    1  UNL1       -0.0009
     21 C         144.3268  142.8752  164.6709 C.ar    1  UNL1       -0.0002
     22 C         145.5976  142.1775  164.2858 C.ar    1  UNL1       -0.0000
     23 C         145.5446  140.9115  163.4830 C.ar    1  UNL1       -0.0003
     24 C         144.2207  140.3432  163.0654 C.ar    1  UNL1       -0.0042
     25 C         142.9499  141.0409  163.4506 C.ar    1  UNL1       -0.0204
     26 C         137.9198  145.0976  165.7939 C.3     1  UNL1        0.0737
     27 C         139.1906  144.3999  165.4088 C.ar    1  UNL1        0.1396
     28 N         139.8726  144.7424  164.1174 N.ar    1  UNL1       -0.2291
     29 C         141.1434  144.0447  163.7323 C.ar    1  UNL1        0.1017
     30 C         141.7322  143.0045  164.6385 C.ar    1  UNL1        0.0380
     31 C         141.0503  142.6620  165.9298 C.ar    1  UNL1        0.1017
     32 N         139.7795  143.3597  166.3149 N.ar    1  UNL1       -0.2291
@<TRIPOS>BOND
     1    26    27    1
     2    27    28   ar
     3    28    29   ar
     4    29    30   ar
     5    30    20    1
     6    20    21   ar
     7    21    22   ar
     8    22    23   ar
     9    23    24   ar
    10    24    25   ar
    11    25    19    1
    12    19    18    1
    13    18     1    1
    14     1     2   am
    15     2     3    2
    16     2     5    1
    17     5     6   ar
    18     6     7   ar
    19     7     8   ar
    20     8    11    1
    21    11    12    1
    22    12    13    1
    23    13    14    1
    24    14    15    1
    25    14    16    1
    26    14    17    1
    27     8     9   ar
    28     9    10   ar
    29    30    31   ar
    30    31    32   ar
    31    32    27   ar
    32    25    20   ar
    33    10     5   ar
    34     1     4    1
@<TRIPOS>MOLECULE
*****
 32 34 0 0 0
SMALL
GASTEIGER

@<TRIPOS>ATOM
      1 N         143.9162  140.4814  164.0955 N.am    1  UNL1       -0.3005
      2 C         143.4442  140.3981  162.6742 C.2     1  UNL1        0.2474
      3 O         143.5779  139.1122  161.9136 O.2     1  UNL1       -0.2701
      4 H         143.8285  141.3254  164.5947 H       1  UNL1        0.1498
      5 C         142.8386  141.6008  162.0134 C.ar    1  UNL1        0.0727
      6 C         141.5456  141.4731  161.2636 C.ar    1  UNL1        0.0109
      7 C         140.9399  142.6758  160.6029 C.ar    1  UNL1        0.0579
      8 C         141.6271  144.0062  160.6919 C.ar    1  UNL1        0.2249
      9 N         142.9199  144.1339  161.4416 N.ar    1  UNL1       -0.2100
     10 C         143.5257  142.9312  162.1025 C.ar    1  UNL1        0.1065
     11 O         141.0214  145.2089  160.0311 O.3     1  UNL1       -0.4599
     12 C         139.9621  146.0001  160.7396 C.3     1  UNL1        0.2159
     13 C         140.0379  146.1933  162.2252 C.3     1  UNL1        0.1505
     14 C         139.5073  145.1357  163.1471 C.3     1  UNL1        0.4014
     15 F         138.9766  144.0781  164.0690 F       1  UNL1       -0.1699
     16 F         140.8010  145.1481  163.9061 F       1  UNL1       -0.1699
     17 F         138.2136  145.1232  162.3881 F       1  UNL1       -0.1699
     18 C         144.5219  139.2787  164.7564 C.3     1  UNL1        0.0944
     19 C         143.6912  138.4265  165.6694 C.3     1  UNL1        0.0476
     20 C         141.4329  139.4225  166.4808 C.ar    1  UNL1       -0.0009
     21 C         139.9360  139.4794  166.4041 C.ar    1  UNL1       -0.0002
     22 C         139.2003  138.5974  165.4392 C.ar    1  UNL1       -0.0000
     23 C         139.9616  137.6585  164.5511 C.ar    1  UNL1       -0.0003
     24 C         141.4586  137.6015  164.6278 C.ar    1  UNL1       -0.0042
     25 C         142.1942  138.4835  165.5927 C.ar    1  UNL1       -0.0204
     26 C         144.3754  142.9504  170.3402 C.3     1  UNL1        0.0737
     27 C         143.6398  142.0684  169.3754 C.ar    1  UNL1        0.1396
     28 N         143.2573  140.6743  169.7754 N.ar    1  UNL1       -0.2291
     29 C         142.5217  139.7923  168.8105 C.ar    1  UNL1        0.1017
     30 C         142.1685  140.3044  167.4457 C.ar    1  UNL1        0.0380
     31 C         142.5510  141.6986  167.0456 C.ar    1  UNL1        0.1017
     32 N         143.2867  142.5806  168.0105 N.ar    1  UNL1       -0.2291
@<TRIPOS>BOND
     1    26    27    1
     2    27    28   ar
     3    28    29   ar
     4    29    30   ar
     5    30    20    1
     6    20    21   ar
     7    21    22   ar
     8    22    23   ar
     9    23    24   ar
    10    24    25   ar
    11    25    19    1
    12    19    18    1
    13    18     1    1
    14     1     2   am
    15     2     3    2
    16     2     5    1
    17     5     6   ar
    18     6     7   ar
    19     7     8   ar
    20     8    11    1
    21    11    12    1
    22    12    13    1
    23    13    14    1
    24    14    15    1
    25    14    16    1
    26    14    17    1
    27     8     9   ar
    28     9    10   ar
    29    30    31   ar
    30    31    32   ar
    31    32    27   ar
    32    25    20   ar
    33    10     5   ar
    34     1     4    1
@<TRIPOS>MOLECULE
*****
 32 34 0 0 0
SMALL
GASTEIGER

@<TRIPOS>ATOM
      1 N         138.2717  139.8261  164.1730 N.am    1  UNL1       -0.3005
      2 C         138.7308  138.7697  165.1339 C.2     1  UNL1        0.2474
      3 O         139.5449  137.6103  164.6411 O.2     1  UNL1       -0.2701
      4 H         137.7374  140.5870  164.4965 H       1  UNL1        0.1498
      5 C         138.3756  138.8728  166.5876 C.ar    1  UNL1        0.0727
      6 C         137.2058  138.1063  167.1300 C.ar    1  UNL1        0.0109
      7 C         136.8507  138.2094  168.5837 C.ar    1  UNL1        0.0579
      8 C         137.6653  139.0789  169.4950 C.ar    1  UNL1        0.2249
      9 N         138.8350  139.8453  168.9526 N.ar    1  UNL1       -0.2100
     10 C         139.1902  139.7423  167.4988 C.ar    1  UNL1        0.1065
     11 O         137.3101  139.1819  170.9486 O.3     1  UNL1       -0.4599
     12 C         136.1115  138.4542  171.4813 C.3     1  UNL1        0.2159
     13 C         136.2866  137.1607  172.2204 C.3     1  UNL1        0.1505
     14 C         135.2875  136.7504  173.2613 C.3     1  UNL1        0.4014
     15 F         134.2884  136.3400  174.3022 F       1  UNL1       -0.1699
     16 F         134.4408  137.9399  172.9175 F       1  UNL1       -0.1699
     17 F         136.1342  135.5609  173.6050 F       1  UNL1       -0.1699
     18 C         138.6269  139.7231  162.7193 C.3     1  UNL1        0.0944
     19 C         139.2541  140.8900  162.0159 C.3     1  UNL1        0.0476
     20 C         140.2981  142.7878  163.4506 C.ar    1  UNL1       -0.0009
     21 C         140.2121  144.1598  164.0508 C.ar    1  UNL1       -0.0002
     22 C         138.9960  145.0060  163.8164 C.ar    1  UNL1       -0.0000
     23 C         137.8659  144.4803  162.9819 C.ar    1  UNL1       -0.0003
     24 C         137.9519  143.1083  162.3818 C.ar    1  UNL1       -0.0042
     25 C         139.1681  142.2621  162.6161 C.ar    1  UNL1       -0.0204
     26 C         145.1626  139.4029  164.3881 C.3     1  UNL1        0.0737
     27 C         143.9465  140.2491  164.1537 C.ar    1  UNL1        0.1396
     28 N         142.8373  140.2641  165.1634 N.ar    1  UNL1       -0.2291
     29 C         141.6212  141.1104  164.9290 C.ar    1  UNL1        0.1017
     30 C         141.5143  141.9416  163.6850 C.ar    1  UNL1        0.0380
     31 C         142.6234  141.9266  162.6753 C.ar    1  UNL1        0.1017
     32 N         143.8396  141.0803  162.9097 N.ar    1  UNL1       -0.2291
@<TRIPOS>BOND
     1    26    27    1
     2    27    28   ar
     3    28    29   ar
     4    29    30   ar
     5    30    20    1
     6    20    21   ar
     7    21    22   ar
     8    22    23   ar
     9    23    24   ar
    10    24    25   ar
    11    25    19    1
    12    19    18    1
    13    18     1    1
    14     1     2   am
    15     2     3    2
    16     2     5    1
    17     5     6   ar
    18     6     7   ar
    19     7     8   ar
    20     8    11    1
    21    11    12    1
    22    12    13    1
    23    13    14    1
    24    14    15    1
    25    14    16    1
    26    14    17    1
    27     8     9   ar
    28     9    10   ar
    29    30    31   ar
    30    31    32   ar
    31    32    27   ar
    32    25    20   ar
    33    10     5   ar
    34     1     4    1
@<TRIPOS>MOLECULE
*****
 32 34 0 0 0
SMALL
GASTEIGER

@<TRIPOS>ATOM
      1 N         142.8108  142.5993  164.3171 N.am    1  UNL1       -0.3005
      2 C         143.0049  143.9896  163.7886 C.2     1  UNL1        0.2474
      3 O         143.9984  144.9068  164.4380 O.2     1  UNL1       -0.2701
      4 H         142.1587  141.9973  163.8909 H       1  UNL1        0.1498
      5 C         142.2055  144.4627  162.6109 C.ar    1  UNL1        0.0727
      6 C         140.9957  145.3238  162.8227 C.ar    1  UNL1        0.0109
      7 C         140.1963  145.7969  161.6450 C.ar    1  UNL1        0.0579
      8 C         140.6067  145.4089  160.2554 C.ar    1  UNL1        0.2249
      9 N         141.8165  144.5479  160.0435 N.ar    1  UNL1       -0.2100
     10 C         142.6160  144.0747  161.2213 C.ar    1  UNL1        0.1065
     11 O         139.8073  145.8820  159.0776 O.3     1  UNL1       -0.4599
     12 C         140.4270  145.9069  157.7118 C.3     1  UNL1        0.2159
     13 C         139.7551  146.6521  156.5968 C.3     1  UNL1        0.1505
     14 C         140.3737  146.6752  155.2304 C.3     1  UNL1        0.4014
     15 F         140.9922  146.6981  153.8641 F       1  UNL1       -0.1699
     16 F         139.9836  148.1155  155.0781 F       1  UNL1       -0.1699
     17 F         140.7637  145.2348  155.3828 F       1  UNL1       -0.1699
     18 C         143.6102  142.1261  165.4949 C.3     1  UNL1        0.0944
     19 C         142.9458  141.3377  166.5843 C.3     1  UNL1        0.0476
     20 C         140.9736  142.4757  167.8355 C.ar    1  UNL1       -0.0009
     21 C         140.4359  143.1769  169.0476 C.ar    1  UNL1       -0.0002
     22 C         141.3326  143.4412  170.2206 C.ar    1  UNL1       -0.0000
     23 C         142.7670  143.0044  170.1816 C.ar    1  UNL1       -0.0003
     24 C         143.3047  142.3032  168.9695 C.ar    1  UNL1       -0.0042
     25 C         142.4080  142.0389  167.7964 C.ar    1  UNL1       -0.0204
     26 C         137.3867  141.4184  163.1433 C.3     1  UNL1        0.0737
     27 C         138.2834  141.6827  164.3164 C.ar    1  UNL1        0.1396
     28 N         138.8344  143.0591  164.5441 N.ar    1  UNL1       -0.2291
     29 C         139.7311  143.3234  165.7171 C.ar    1  UNL1        0.1017
     30 C         140.0768  142.2114  166.6625 C.ar    1  UNL1        0.0380
     31 C         139.5259  140.8350  166.4348 C.ar    1  UNL1        0.1017
     32 N         138.6291  140.5706  165.2617 N.ar    1  UNL1       -0.2291
@<TRIPOS>BOND
     1    26    27    1
     2    27    28   ar
     3    28    29   ar
     4    29    30   ar
     5    30    20    1
     6    20    21   ar
     7    21    22   ar
     8    22    23   ar
     9    23    24   ar
    10    24    25   ar
    11    25    19    1
    12    19    18    1
    13    18     1    1
    14     1     2   am
    15     2     3    2
    16     2     5    1
    17     5     6   ar
    18     6     7   ar
    19     7     8   ar
    20     8    11    1
    21    11    12    1
    22    12    13    1
    23    13    14    1
    24    14    15    1
    25    14    16    1
    26    14    17    1
    27     8     9   ar
    28     9    10   ar
    29    30    31   ar
    30    31    32   ar
    31    32    27   ar
    32    25    20   ar
    33    10     5   ar
    34     1     4    1
@<TRIPOS>MOLECULE
*****
 32 34 0 0 0
SMALL
GASTEIGER

@<TRIPOS>ATOM
      1 N         144.6932  139.8859  162.8578 N.am    1  UNL1       -0.3005
      2 C         144.3106  140.4707  161.5306 C.2     1  UNL1        0.2474
      3 O         144.4222  141.9490  161.3022 O.2     1  UNL1       -0.2701
      4 H         144.6200  138.9156  163.0077 H       1  UNL1        0.1498
      5 C         143.8165  139.5772  160.4318 C.ar    1  UNL1        0.0727
      6 C         143.2885  138.2111  160.7562 C.ar    1  UNL1        0.0109
      7 C         142.7943  137.3177  159.6574 C.ar    1  UNL1        0.0579
      8 C         142.8281  137.7902  158.2342 C.ar    1  UNL1        0.2249
      9 N         143.3560  139.1562  157.9097 N.ar    1  UNL1       -0.2100
     10 C         143.8502  140.0497  159.0086 C.ar    1  UNL1        0.1065
     11 O         142.3339  136.8967  157.1353 O.3     1  UNL1       -0.4599
     12 C         143.2371  135.8468  156.5590 C.3     1  UNL1        0.2159
     13 C         143.0212  134.4022  156.9004 C.3     1  UNL1        0.1505
     14 C         144.0970  133.6289  157.6039 C.3     1  UNL1        0.4014
     15 F         145.1727  132.8557  158.3074 F       1  UNL1       -0.1699
     16 F         143.6895  134.2484  158.9078 F       1  UNL1       -0.1699
     17 F         144.5044  133.0095  156.3000 F       1  UNL1       -0.1699
     18 C         145.1874  140.7794  163.9567 C.3     1  UNL1        0.0944
     19 C         144.2137  141.3977  164.9156 C.3     1  UNL1        0.0476
     20 C         142.0124  142.6654  164.3705 C.ar    1  UNL1       -0.0009
     21 C         141.3005  143.9335  164.0030 C.ar    1  UNL1       -0.0002
     22 C         142.0780  145.2021  163.8132 C.ar    1  UNL1       -0.0000
     23 C         143.5674  145.2026  163.9909 C.ar    1  UNL1       -0.0003
     24 C         144.2793  143.9345  164.3583 C.ar    1  UNL1       -0.0042
     25 C         143.5018  142.6659  164.5481 C.ar    1  UNL1       -0.0204
     26 C         138.9022  137.5909  165.1298 C.3     1  UNL1        0.0737
     27 C         139.6798  138.8595  164.9400 C.ar    1  UNL1        0.1396
     28 N         139.8773  139.7978  166.0934 N.ar    1  UNL1       -0.2291
     29 C         140.6548  141.0664  165.9036 C.ar    1  UNL1        0.1017
     30 C         141.2348  141.3967  164.5603 C.ar    1  UNL1        0.0380
     31 C         141.0373  140.4584  163.4069 C.ar    1  UNL1        0.1017
     32 N         140.2598  139.1898  163.5967 N.ar    1  UNL1       -0.2291
@<TRIPOS>BOND
     1    26    27    1
     2    27    28   ar
     3    28    29   ar
     4    29    30   ar
     5    30    20    1
     6    20    21   ar
     7    21    22   ar
     8    22    23   ar
     9    23    24   ar
    10    24    25   ar
    11    25    19    1
    12    19    18    1
    13    18     1    1
    14     1     2   am
    15     2     3    2
    16     2     5    1
    17     5     6   ar
    18     6     7   ar
    19     7     8   ar
    20     8    11    1
    21    11    12    1
    22    12    13    1
    23    13    14    1
    24    14    15    1
    25    14    16    1
    26    14    17    1
    27     8     9   ar
    28     9    10   ar
    29    30    31   ar
    30    31    32   ar
    31    32    27   ar
    32    25    20   ar
    33    10     5   ar
    34     1     4    1
@<TRIPOS>MOLECULE
*****
 32 34 0 0 0
SMALL
GASTEIGER

@<TRIPOS>ATOM
      1 N         140.0600  137.9835  163.9675 N.am    1  UNL1       -0.3005
      2 C         139.5178  138.0046  162.5692 C.2     1  UNL1        0.2474
      3 O         138.0367  137.9496  162.3381 O.2     1  UNL1       -0.2701
      4 H         141.0321  138.0196  164.1191 H       1  UNL1        0.1498
      5 C         140.4566  138.0809  161.4018 C.ar    1  UNL1        0.0727
      6 C         141.9070  137.7435  161.5825 C.ar    1  UNL1        0.0109
      7 C         142.8458  137.8197  160.4152 C.ar    1  UNL1        0.0579
      8 C         142.3344  138.2333  159.0671 C.ar    1  UNL1        0.2249
      9 N         140.8841  138.5707  158.8864 N.ar    1  UNL1       -0.2100
     10 C         139.9451  138.4945  160.0537 C.ar    1  UNL1        0.1065
     11 O         143.2732  138.3095  157.8998 O.3     1  UNL1       -0.4599
     12 C         142.9698  137.5499  156.6424 C.3     1  UNL1        0.2159
     13 C         143.4738  136.1473  156.4734 C.3     1  UNL1        0.1505
     14 C         142.5081  135.0298  156.2110 C.3     1  UNL1        0.4014
     15 F         141.5424  133.9125  155.9485 F       1  UNL1       -0.1699
     16 F         143.6557  134.0944  155.9705 F       1  UNL1       -0.1699
     17 F         141.3604  135.9652  156.4514 F       1  UNL1       -0.1699
     18 C         139.1211  137.9073  165.1350 C.3     1  UNL1        0.0944
     19 C         138.3895  139.1349  165.5904 C.3     1  UNL1        0.0476
     20 C         139.5385  141.4621  165.7087 C.ar    1  UNL1       -0.0009
     21 C         140.2596  142.5164  166.4953 C.ar    1  UNL1       -0.0002
     22 C         140.5527  142.2977  167.9500 C.ar    1  UNL1       -0.0000
     23 C         140.1247  141.0248  168.6182 C.ar    1  UNL1       -0.0003
     24 C         139.4037  139.9706  167.8317 C.ar    1  UNL1       -0.0042
     25 C         139.1106  140.1892  166.3770 C.ar    1  UNL1       -0.0204
     26 C         138.3661  142.3369  159.8898 C.3     1  UNL1        0.0737
     27 C         138.6592  142.1182  161.3445 C.ar    1  UNL1        0.1396
     28 N         137.5732  142.2970  162.3636 N.ar    1  UNL1       -0.2291
     29 C         137.8663  142.0783  163.8183 C.ar    1  UNL1        0.1017
     30 C         139.2454  141.6808  164.2540 C.ar    1  UNL1        0.0380
     31 C         140.3315  141.5020  163.2350 C.ar    1  UNL1        0.1017
     32 N         140.0384  141.7207  161.7802 N.ar    1  UNL1       -0.2291
@<TRIPOS>BOND
     1    26    27    1
     2    27    28   ar
     3    28    29   ar
     4    29    30   ar
     5    30    20    1
     6    20    21   ar
     7    21    22   ar
     8    22    23   ar
     9    23    24   ar
    10    24    25   ar
    11    25    19    1
    12    19    18    1
    13    18     1    1
    14     1     2   am
    15     2     3    2
    16     2     5    1
    17     5     6   ar
    18     6     7   ar
    19     7     8   ar
    20     8    11    1
    21    11    12    1
    22    12    13    1
    23    13    14    1
    24    14    15    1
    25    14    16    1
    26    14    17    1
    27     8     9   ar
    28     9    10   ar
    29    30    31   ar
    30    31    32   ar
    31    32    27   ar
    32    25    20   ar
    33    10     5   ar
    34     1     4    1
@<TRIPOS>MOLECULE
*****
 32 34 0 0 0
SMALL
GASTEIGER

@<TRIPOS>ATOM
      1 N         139.1046  138.9491  162.5765 N.am    1  UNL1       -0.3005
      2 C         138.4248  139.9315  163.4836 C.2     1  UNL1        0.2474
      3 O         137.4835  140.9510  162.9141 O.2     1  UNL1       -0.2701
      4 H         139.7225  138.2799  162.9502 H       1  UNL1        0.1498
      5 C         138.6864  139.8942  164.9601 C.ar    1  UNL1        0.0727
      6 C         139.5972  140.9084  165.5862 C.ar    1  UNL1        0.0109
      7 C         139.8588  140.8711  167.0628 C.ar    1  UNL1        0.0579
      8 C         139.2097  139.8198  167.9132 C.ar    1  UNL1        0.2249
      9 N         138.2989  138.8057  167.2871 N.ar    1  UNL1       -0.2100
     10 C         138.0373  138.8429  165.8105 C.ar    1  UNL1        0.1065
     11 O         139.4713  139.7825  169.3897 O.3     1  UNL1       -0.4599
     12 C         139.2415  141.0083  170.2233 C.3     1  UNL1        0.2159
     13 C         140.3865  141.9224  170.5443 C.3     1  UNL1        0.1505
     14 C         140.2849  143.3876  170.2390 C.3     1  UNL1        0.4014
     15 F         140.1833  144.8526  169.9338 F       1  UNL1       -0.1699
     16 F         141.4118  143.2612  169.2572 F       1  UNL1       -0.1699
     17 F         139.1580  143.5140  171.2209 F       1  UNL1       -0.1699
     18 C         138.8430  138.9863  161.0999 C.3     1  UNL1        0.0944
     19 C         139.8407  139.6215  160.1773 C.3     1  UNL1        0.0476
     20 C         141.9381  138.3850  159.2705 C.ar    1  UNL1       -0.0009
     21 C         142.6030  137.5644  158.2054 C.ar    1  UNL1       -0.0002
     22 C         141.8355  137.1598  156.9818 C.ar    1  UNL1       -0.0000
     23 C         140.4031  137.5757  156.8233 C.ar    1  UNL1       -0.0003
     24 C         139.7382  138.3963  157.8885 C.ar    1  UNL1       -0.0042
     25 C         140.5057  138.8009  159.1121 C.ar    1  UNL1       -0.0204
     26 C         145.0081  140.0034  164.1650 C.3     1  UNL1        0.0737
     27 C         144.2406  139.5988  162.9414 C.ar    1  UNL1        0.1396
     28 N         144.3707  140.3953  161.6770 N.ar    1  UNL1       -0.2291
     29 C         143.6032  139.9906  160.4534 C.ar    1  UNL1        0.1017
     30 C         142.7056  138.7896  160.4942 C.ar    1  UNL1        0.0380
     31 C         142.5755  137.9932  161.7585 C.ar    1  UNL1        0.1017
     32 N         143.3430  138.3978  162.9822 N.ar    1  UNL1       -0.2291
@<TRIPOS>BOND
     1    26    27    1
     2    27    28   ar
     3    28    29   ar
     4    29    30   ar
     5    30    20    1
     6    20    21   ar
     7    21    22   ar
     8    22    23   ar
     9    23    24   ar
    10    24    25   ar
    11    25    19    1
    12    19    18    1
    13    18     1    1
    14     1     2   am
    15     2     3    2
    16     2     5    1
    17     5     6   ar
    18     6     7   ar
    19     7     8   ar
    20     8    11    1
    21    11    12    1
    22    12    13    1
    23    13    14    1
    24    14    15    1
    25    14    16    1
    26    14    17    1
    27     8     9   ar
    28     9    10   ar
    29    30    31   ar
    30    31    32   ar
    31    32    27   ar
    32    25    20   ar
    33    10     5   ar
    34     1     4    1
@<TRIPOS>MOLECULE
*****
 32 34 0 0 0
SMALL
GASTEIGER

@<TRIPOS>ATOM
      1 N         139.5867  138.0229  163.8336 N.am    1  UNL1       -0.3005
      2 C         141.0566  137.7779  163.6628 C.2     1  UNL1        0.2474
      3 O         141.8606  137.2181  164.7986 O.2     1  UNL1       -0.2701
      4 H         139.0589  138.3903  163.0881 H       1  UNL1        0.1498
      5 C         141.7224  138.0927  162.3561 C.ar    1  UNL1        0.0727
      6 C         143.2187  138.1619  162.2742 C.ar    1  UNL1        0.0109
      7 C         143.8845  138.4767  160.9675 C.ar    1  UNL1        0.0579
      8 C         143.0542  138.7222  159.7426 C.ar    1  UNL1        0.2249
      9 N         141.5581  138.6530  159.8244 N.ar    1  UNL1       -0.2100
     10 C         140.8922  138.3382  161.1312 C.ar    1  UNL1        0.1065
     11 O         143.7201  139.0370  158.4359 O.3     1  UNL1       -0.4599
     12 C         144.0922  140.4521  158.1054 C.3     1  UNL1        0.2159
     13 C         143.4813  141.5869  158.8728 C.3     1  UNL1        0.1505
     14 C         144.2494  142.2412  159.9828 C.3     1  UNL1        0.4014
     15 F         145.0174  142.8954  161.0928 F       1  UNL1       -0.1699
     16 F         145.2888  142.6902  158.9990 F       1  UNL1       -0.1699
     17 F         143.2099  141.7923  160.9666 F       1  UNL1       -0.1699
     18 C         138.9207  137.7082  165.1404 C.3     1  UNL1        0.0944
     19 C         138.3846  138.8178  165.9954 C.3     1  UNL1        0.0476
     20 C         139.7362  141.0173  166.2879 C.ar    1  UNL1       -0.0009
     21 C         139.9902  142.4461  165.9085 C.ar    1  UNL1       -0.0002
     22 C         139.1466  143.1043  164.8572 C.ar    1  UNL1       -0.0000
     23 C         138.0491  142.3337  164.1853 C.ar    1  UNL1       -0.0003
     24 C         137.7951  140.9049  164.5647 C.ar    1  UNL1       -0.0042
     25 C         138.6386  140.2467  165.6160 C.ar    1  UNL1       -0.0204
     26 C         143.1104  138.3846  170.4931 C.3     1  UNL1        0.0737
     27 C         142.2668  139.0428  169.4418 C.ar    1  UNL1        0.1396
     28 N         140.8957  139.5442  169.7858 N.ar    1  UNL1       -0.2291
     29 C         140.0521  140.2024  168.7345 C.ar    1  UNL1        0.1017
     30 C         140.5797  140.3591  167.3392 C.ar    1  UNL1        0.0380
     31 C         141.9509  139.8577  166.9952 C.ar    1  UNL1        0.1017
     32 N         142.7944  139.1995  168.0464 N.ar    1  UNL1       -0.2291
@<TRIPOS>BOND
     1    26    27    1
     2    27    28   ar
     3    28    29   ar
     4    29    30   ar
     5    30    20    1
     6    20    21   ar
     7    21    22   ar
     8    22    23   ar
     9    23    24   ar
    10    24    25   ar
    11    25    19    1
    12    19    18    1
    13    18     1    1
    14     1     2   am
    15     2     3    2
    16     2     5    1
    17     5     6   ar
    18     6     7   ar
    19     7     8   ar
    20     8    11    1
    21    11    12    1
    22    12    13    1
    23    13    14    1
    24    14    15    1
    25    14    16    1
    26    14    17    1
    27     8     9   ar
    28     9    10   ar
    29    30    31   ar
    30    31    32   ar
    31    32    27   ar
    32    25    20   ar
    33    10     5   ar
    34     1     4    1
