@<TRIPOS>MOLECULE
*****
 23 25 0 0 0
SMALL
GASTEIGER

@<TRIPOS>ATOM
      1 C         139.5977  140.6780  166.3580 C.ar    1  UNL1        0.0382
      2 C         138.5679  139.6598  165.9671 C.ar    1  UNL1        0.0966
      3 N         138.1574  138.9173  167.2040 N.ar    1  UNL1       -0.2474
      4 C         137.1480  137.8099  167.2734 C.3     1  UNL1        0.1538
      5 N         138.9335  139.4766  168.3595 N.ar    1  UNL1       -0.1692
      6 C         139.8236  140.5648  167.8366 C.ar    1  UNL1        0.1023
      7 C         140.7730  141.3941  168.6495 C.ar    1  UNL1        0.0195
      8 C         140.3253  142.7098  169.2139 C.ar    1  UNL1        0.0039
      9 C         141.2746  143.5392  170.0269 C.ar    1  UNL1        0.0297
     10 C         142.6717  143.0528  170.2754 C.ar    1  UNL1        0.1401
     11 F         143.6211  143.8822  171.0884 F       1  UNL1       -0.2042
     12 C         143.1194  141.7371  169.7110 C.ar    1  UNL1        0.0297
     13 C         142.1700  140.9078  168.8981 C.ar    1  UNL1        0.0039
     14 C         140.2472  143.8351  164.0425 C.ar    1  UNL1        0.0749
     15 C         139.5634  142.8726  164.9677 C.ar    1  UNL1        0.0162
     16 C         140.2816  141.6405  165.4328 C.ar    1  UNL1        0.0058
     17 C         141.6835  141.3710  164.9726 C.ar    1  UNL1        0.0208
     18 C         142.3673  142.3335  164.0475 C.ar    1  UNL1        0.0985
     19 N         141.6491  143.5655  163.5824 N.ar    1  UNL1       -0.2468
     20 C         139.5290  145.0671  163.5775 C.3     1  UNL1        0.1152
     21 C         140.1076  145.8047  161.1545 C.3     1  UNL1        0.0862
     22 N         140.2052  146.0190  162.6359 N.3     1  UNL1       -0.2913
     23 H         139.8200  146.9442  162.8256 H       1  UNL1        0.1236
@<TRIPOS>BOND
     1    21    22    1
     2    22    20    1
     3    20    14    1
     4    14    15   ar
     5    15    16   ar
     6    16     1    1
     7     1     2   ar
     8     2     3   ar
     9     3     4    1
    10     3     5   ar
    11     5     6   ar
    12     6     7    1
    13     7     8   ar
    14     8     9   ar
    15     9    10   ar
    16    10    11    1
    17    10    12   ar
    18    12    13   ar
    19    16    17   ar
    20    17    18   ar
    21    18    19   ar
    22    19    14   ar
    23     6     1   ar
    24    13     7   ar
    25    22    23    1
@<TRIPOS>MOLECULE
*****
 23 25 0 0 0
SMALL
GASTEIGER

@<TRIPOS>ATOM
      1 C         139.8042  141.2329  166.2728 C.ar    1  UNL1        0.0382
      2 C         138.8514  140.1947  165.7588 C.ar    1  UNL1        0.0966
      3 N         138.5690  139.2321  166.8739 N.ar    1  UNL1       -0.2474
      4 C         137.6667  138.0361  166.7990 C.3     1  UNL1        0.1538
      5 N         139.3472  139.6754  168.0772 N.ar    1  UNL1       -0.1692
      6 C         140.1106  140.9119  167.7057 C.ar    1  UNL1        0.1023
      7 C         141.0207  141.6908  168.6085 C.ar    1  UNL1        0.0195
      8 C         140.5071  142.9040  169.3257 C.ar    1  UNL1        0.0039
      9 C         141.4170  143.6830  170.2286 C.ar    1  UNL1        0.0297
     10 C         142.8408  143.2487  170.4142 C.ar    1  UNL1        0.1401
     11 F         143.7509  144.0276  171.3170 F       1  UNL1       -0.2042
     12 C         143.3544  142.0355  169.6970 C.ar    1  UNL1        0.0297
     13 C         142.4444  141.2566  168.7942 C.ar    1  UNL1        0.0039
     14 C         142.3574  143.5774  164.3403 C.ar    1  UNL1        0.0749
     15 C         141.8075  142.4212  165.1218 C.ar    1  UNL1        0.0162
     16 C         140.3541  142.3891  165.4912 C.ar    1  UNL1        0.0058
     17 C         139.4505  143.5132  165.0790 C.ar    1  UNL1        0.0208
     18 C         140.0003  144.6694  164.2974 C.ar    1  UNL1        0.0985
     19 N         141.4538  144.7015  163.9281 N.ar    1  UNL1       -0.2468
     20 C         143.8108  143.6095  163.9709 C.3     1  UNL1        0.1152
     21 C         145.5976  141.7351  163.7610 C.3     1  UNL1        0.0862
     22 N         144.7692  142.6506  164.6128 N.3     1  UNL1       -0.2913
     23 H         145.4204  143.2097  165.1638 H       1  UNL1        0.1236
@<TRIPOS>BOND
     1    21    22    1
     2    22    20    1
     3    20    14    1
     4    14    15   ar
     5    15    16   ar
     6    16     1    1
     7     1     2   ar
     8     2     3   ar
     9     3     4    1
    10     3     5   ar
    11     5     6   ar
    12     6     7    1
    13     7     8   ar
    14     8     9   ar
    15     9    10   ar
    16    10    11    1
    17    10    12   ar
    18    12    13   ar
    19    16    17   ar
    20    17    18   ar
    21    18    19   ar
    22    19    14   ar
    23     6     1   ar
    24    13     7   ar
    25    22    23    1
@<TRIPOS>MOLECULE
*****
 23 25 0 0 0
SMALL
GASTEIGER

@<TRIPOS>ATOM
      1 C         140.6042  142.2343  167.2658 C.ar    1  UNL1        0.0382
      2 C         140.5167  142.9552  168.5782 C.ar    1  UNL1        0.0966
      3 N         140.5558  141.9309  169.6733 N.ar    1  UNL1       -0.2474
      4 C         140.4941  142.2114  171.1456 C.3     1  UNL1        0.1538
      5 N         140.6675  140.5768  169.0377 N.ar    1  UNL1       -0.1692
      6 C         140.6974  140.7643  167.5497 C.ar    1  UNL1        0.1023
      7 C         140.8022  139.6734  166.5256 C.ar    1  UNL1        0.0195
      8 C         139.5600  139.1019  165.9088 C.ar    1  UNL1        0.0039
      9 C         139.6646  138.0110  164.8847 C.ar    1  UNL1        0.0297
     10 C         141.0115  137.4915  164.4772 C.ar    1  UNL1        0.1401
     11 F         141.1163  136.4006  163.4531 F       1  UNL1       -0.2042
     12 C         142.2537  138.0630  165.0940 C.ar    1  UNL1        0.0297
     13 C         142.1490  139.1539  166.1181 C.ar    1  UNL1        0.0039
     14 C         139.2937  143.8648  163.8933 C.ar    1  UNL1        0.0749
     15 C         139.2986  143.2278  165.2512 C.ar    1  UNL1        0.0162
     16 C         140.5993  142.8713  165.9077 C.ar    1  UNL1        0.0058
     17 C         141.8952  143.1519  165.2063 C.ar    1  UNL1        0.0208
     18 C         141.8902  143.7890  163.8483 C.ar    1  UNL1        0.0985
     19 N         140.5895  144.1454  163.1918 N.ar    1  UNL1       -0.2468
     20 C         137.9930  144.2213  163.2368 C.3     1  UNL1        0.1152
     21 C         137.9601  142.0380  161.8289 C.3     1  UNL1        0.0862
     22 N         137.5283  143.4603  162.0306 N.3     1  UNL1       -0.2913
     23 H         136.5087  143.4573  162.0591 H       1  UNL1        0.1236
@<TRIPOS>BOND
     1    21    22    1
     2    22    20    1
     3    20    14    1
     4    14    15   ar
     5    15    16   ar
     6    16     1    1
     7     1     2   ar
     8     2     3   ar
     9     3     4    1
    10     3     5   ar
    11     5     6   ar
    12     6     7    1
    13     7     8   ar
    14     8     9   ar
    15     9    10   ar
    16    10    11    1
    17    10    12   ar
    18    12    13   ar
    19    16    17   ar
    20    17    18   ar
    21    18    19   ar
    22    19    14   ar
    23     6     1   ar
    24    13     7   ar
    25    22    23    1
@<TRIPOS>MOLECULE
*****
 23 25 0 0 0
SMALL
GASTEIGER

@<TRIPOS>ATOM
      1 C         140.1004  139.9541  167.0585 C.ar    1  UNL1        0.0382
      2 C         139.3932  139.8813  168.3793 C.ar    1  UNL1        0.0966
      3 N         140.3890  140.1953  169.4562 N.ar    1  UNL1       -0.2474
      4 C         140.1110  140.2353  170.9297 C.3     1  UNL1        0.1538
      5 N         141.7118  140.4621  168.8010 N.ar    1  UNL1       -0.1692
      6 C         141.5333  140.3131  167.3191 C.ar    1  UNL1        0.1023
      7 C         142.6005  140.4916  166.2803 C.ar    1  UNL1        0.0195
      8 C         143.2712  139.2916  165.6801 C.ar    1  UNL1        0.0039
      9 C         144.3384  139.4701  164.6412 C.ar    1  UNL1        0.0297
     10 C         144.7349  140.8487  164.2025 C.ar    1  UNL1        0.1401
     11 F         145.8020  141.0272  163.1636 F       1  UNL1       -0.2042
     12 C         144.0642  142.0486  164.8026 C.ar    1  UNL1        0.0297
     13 C         142.9970  141.8701  165.8415 C.ar    1  UNL1        0.0039
     14 C         138.0607  140.5462  163.7060 C.ar    1  UNL1        0.0749
     15 C         138.6781  140.7895  165.0512 C.ar    1  UNL1        0.0162
     16 C         139.4830  139.7108  165.7132 C.ar    1  UNL1        0.0058
     17 C         139.6707  138.3887  165.0300 C.ar    1  UNL1        0.0208
     18 C         139.0534  138.1453  163.6848 C.ar    1  UNL1        0.0985
     19 N         138.2484  139.2241  163.0228 N.ar    1  UNL1       -0.2468
     20 C         137.2557  141.6249  163.0440 C.3     1  UNL1        0.1152
     21 C         137.8007  144.1596  163.2125 C.3     1  UNL1        0.0862
     22 N         137.9391  142.8455  162.5026 N.3     1  UNL1       -0.2913
     23 H         138.9362  142.6335  162.4674 H       1  UNL1        0.1236
@<TRIPOS>BOND
     1    21    22    1
     2    22    20    1
     3    20    14    1
     4    14    15   ar
     5    15    16   ar
     6    16     1    1
     7     1     2   ar
     8     2     3   ar
     9     3     4    1
    10     3     5   ar
    11     5     6   ar
    12     6     7    1
    13     7     8   ar
    14     8     9   ar
    15     9    10   ar
    16    10    11    1
    17    10    12   ar
    18    12    13   ar
    19    16    17   ar
    20    17    18   ar
    21    18    19   ar
    22    19    14   ar
    23     6     1   ar
    24    13     7   ar
    25    22    23    1
@<TRIPOS>MOLECULE
*****
 23 25 0 0 0
SMALL
GASTEIGER

@<TRIPOS>ATOM
      1 C         142.8161  141.4405  166.9734 C.ar    1  UNL1        0.0382
      2 C         142.8349  141.6358  168.4605 C.ar    1  UNL1        0.0966
      3 N         142.8664  140.2820  169.1055 N.ar    1  UNL1       -0.2474
      4 C         142.8926  140.0082  170.5801 C.3     1  UNL1        0.1538
      5 N         142.8672  139.2498  168.0170 N.ar    1  UNL1       -0.1692
      6 C         142.8361  139.9659  166.6993 C.ar    1  UNL1        0.1023
      7 C         142.8267  139.3206  165.3452 C.ar    1  UNL1        0.0195
      8 C         141.6782  138.4451  164.9396 C.ar    1  UNL1        0.0039
      9 C         141.6686  137.7997  163.5856 C.ar    1  UNL1        0.0297
     10 C         142.8077  138.0299  162.6371 C.ar    1  UNL1        0.1401
     11 F         142.7983  137.3846  161.2830 F       1  UNL1       -0.2042
     12 C         143.9563  138.9053  163.0427 C.ar    1  UNL1        0.0297
     13 C         143.9657  139.5506  164.3968 C.ar    1  UNL1        0.0039
     14 C         141.4457  144.0259  164.2924 C.ar    1  UNL1        0.0749
     15 C         141.4787  142.9377  165.3242 C.ar    1  UNL1        0.0162
     16 C         142.7832  142.5287  165.9415 C.ar    1  UNL1        0.0058
     17 C         144.0547  143.2079  165.5269 C.ar    1  UNL1        0.0208
     18 C         144.0217  144.2960  164.4951 C.ar    1  UNL1        0.0985
     19 N         142.7172  144.7050  163.8778 N.ar    1  UNL1       -0.2468
     20 C         140.1412  144.4349  163.6751 C.3     1  UNL1        0.1152
     21 C         139.9089  146.1408  161.7294 C.3     1  UNL1        0.0862
     22 N         139.9458  145.8439  163.1993 N.3     1  UNL1       -0.2913
     23 H         139.0587  146.1652  163.5869 H       1  UNL1        0.1236
@<TRIPOS>BOND
     1    21    22    1
     2    22    20    1
     3    20    14    1
     4    14    15   ar
     5    15    16   ar
     6    16     1    1
     7     1     2   ar
     8     2     3   ar
     9     3     4    1
    10     3     5   ar
    11     5     6   ar
    12     6     7    1
    13     7     8   ar
    14     8     9   ar
    15     9    10   ar
    16    10    11    1
    17    10    12   ar
    18    12    13   ar
    19    16    17   ar
    20    17    18   ar
    21    18    19   ar
    22    19    14   ar
    23     6     1   ar
    24    13     7   ar
    25    22    23    1
@<TRIPOS>MOLECULE
*****
 23 25 0 0 0
SMALL
GASTEIGER

@<TRIPOS>ATOM
      1 C         142.6001  142.1569  166.9651 C.ar    1  UNL1        0.0382
      2 C         143.3263  142.3468  168.2638 C.ar    1  UNL1        0.0966
      3 N         142.3058  142.6084  169.3315 N.ar    1  UNL1       -0.2474
      4 C         142.5919  142.8549  170.7832 C.3     1  UNL1        0.1538
      5 N         140.9488  142.5802  168.6927 N.ar    1  UNL1       -0.1692
      6 C         141.1308  142.3012  167.2302 C.ar    1  UNL1        0.1023
      7 C         140.0357  142.1865  166.2116 C.ar    1  UNL1        0.0195
      8 C         139.5691  143.4050  165.4716 C.ar    1  UNL1        0.0039
      9 C         138.4740  143.2905  164.4530 C.ar    1  UNL1        0.0297
     10 C         137.8454  141.9572  164.1743 C.ar    1  UNL1        0.1401
     11 F         136.7503  141.8426  163.1557 F       1  UNL1       -0.2042
     12 C         138.3120  140.7387  164.9143 C.ar    1  UNL1        0.0297
     13 C         139.4071  140.8534  165.9329 C.ar    1  UNL1        0.0039
     14 C         144.1152  142.7086  163.3388 C.ar    1  UNL1        0.0749
     15 C         143.4831  142.9927  164.6690 C.ar    1  UNL1        0.0162
     16 C         143.2323  141.8727  165.6348 C.ar    1  UNL1        0.0058
     17 C         143.6137  140.4686  165.2703 C.ar    1  UNL1        0.0208
     18 C         144.2459  140.1844  163.9401 C.ar    1  UNL1        0.0985
     19 N         144.4966  141.3044  162.9743 N.ar    1  UNL1       -0.2468
     20 C         144.3660  143.8286  162.3730 C.3     1  UNL1        0.1152
     21 C         141.9854  144.4414  161.5322 C.3     1  UNL1        0.0862
     22 N         143.3012  144.8548  162.1218 N.3     1  UNL1       -0.2913
     23 H         143.0968  145.2929  163.0199 H       1  UNL1        0.1236
@<TRIPOS>BOND
     1    21    22    1
     2    22    20    1
     3    20    14    1
     4    14    15   ar
     5    15    16   ar
     6    16     1    1
     7     1     2   ar
     8     2     3   ar
     9     3     4    1
    10     3     5   ar
    11     5     6   ar
    12     6     7    1
    13     7     8   ar
    14     8     9   ar
    15     9    10   ar
    16    10    11    1
    17    10    12   ar
    18    12    13   ar
    19    16    17   ar
    20    17    18   ar
    21    18    19   ar
    22    19    14   ar
    23     6     1   ar
    24    13     7   ar
    25    22    23    1
@<TRIPOS>MOLECULE
*****
 23 25 0 0 0
SMALL
GASTEIGER

@<TRIPOS>ATOM
      1 C         139.9463  140.7462  166.9868 C.ar    1  UNL1        0.0382
      2 C         139.9732  140.1952  168.3816 C.ar    1  UNL1        0.0966
      3 N         140.3976  141.2968  169.3071 N.ar    1  UNL1       -0.2474
      4 C         140.5584  141.1859  170.7943 C.3     1  UNL1        0.1538
      5 N         140.6330  142.5286  168.4842 N.ar    1  UNL1       -0.1692
      6 C         140.3540  142.1884  167.0502 C.ar    1  UNL1        0.1023
      7 C         140.4636  143.1257  165.8842 C.ar    1  UNL1        0.0195
      8 C         141.7399  143.2008  165.0996 C.ar    1  UNL1        0.0039
      9 C         141.8496  144.1381  163.9337 C.ar    1  UNL1        0.0297
     10 C         140.6828  145.0004  163.5523 C.ar    1  UNL1        0.1401
     11 F         140.7924  145.9377  162.3864 F       1  UNL1       -0.2042
     12 C         139.4066  144.9253  164.3369 C.ar    1  UNL1        0.0297
     13 C         139.2970  143.9879  165.5028 C.ar    1  UNL1        0.0039
     14 C         140.0846  138.1160  164.0182 C.ar    1  UNL1        0.0749
     15 C         140.4543  138.8740  165.2586 C.ar    1  UNL1        0.0162
     16 C         139.5765  139.9882  165.7463 C.ar    1  UNL1        0.0058
     17 C         138.3289  140.3445  164.9935 C.ar    1  UNL1        0.0208
     18 C         137.9592  139.5865  163.7531 C.ar    1  UNL1        0.0985
     19 N         138.8370  138.4723  163.2654 N.ar    1  UNL1       -0.2468
     20 C         140.9624  137.0017  163.5305 C.3     1  UNL1        0.1152
     21 C         141.9360  138.5268  161.6660 C.3     1  UNL1        0.0862
     22 N         141.7423  137.1628  162.2594 N.3     1  UNL1       -0.2913
     23 H         142.6727  136.7832  162.4346 H       1  UNL1        0.1236
@<TRIPOS>BOND
     1    21    22    1
     2    22    20    1
     3    20    14    1
     4    14    15   ar
     5    15    16   ar
     6    16     1    1
     7     1     2   ar
     8     2     3   ar
     9     3     4    1
    10     3     5   ar
    11     5     6   ar
    12     6     7    1
    13     7     8   ar
    14     8     9   ar
    15     9    10   ar
    16    10    11    1
    17    10    12   ar
    18    12    13   ar
    19    16    17   ar
    20    17    18   ar
    21    18    19   ar
    22    19    14   ar
    23     6     1   ar
    24    13     7   ar
    25    22    23    1
@<TRIPOS>MOLECULE
*****
 23 25 0 0 0
SMALL
GASTEIGER

@<TRIPOS>ATOM
      1 C         141.1825  142.3908  167.1258 C.ar    1  UNL1        0.0382
      2 C         140.9729  142.5419  168.6034 C.ar    1  UNL1        0.0966
      3 N         142.3201  142.6515  169.2539 N.ar    1  UNL1       -0.2474
      4 C         142.5795  142.8157  170.7221 C.3     1  UNL1        0.1538
      5 N         143.3623  142.5682  168.1783 N.ar    1  UNL1       -0.1692
      6 C         142.6592  142.4071  166.8631 C.ar    1  UNL1        0.1023
      7 C         143.3173  142.2839  165.5208 C.ar    1  UNL1        0.0195
      8 C         143.6228  143.5145  164.7195 C.ar    1  UNL1        0.0039
      9 C         144.2809  143.3914  163.3772 C.ar    1  UNL1        0.0297
     10 C         144.6336  142.0374  162.8362 C.ar    1  UNL1        0.1401
     11 F         145.2917  141.9142  161.4940 F       1  UNL1       -0.2042
     12 C         144.3282  140.8068  163.6376 C.ar    1  UNL1        0.0297
     13 C         143.6700  140.9300  164.9799 C.ar    1  UNL1        0.0039
     14 C         138.5939  143.2980  164.2577 C.ar    1  UNL1        0.0749
     15 C         139.6717  143.4403  165.2911 C.ar    1  UNL1        0.0162
     16 C         140.1046  142.2484  166.0924 C.ar    1  UNL1        0.0058
     17 C         139.4597  140.9143  165.8602 C.ar    1  UNL1        0.0208
     18 C         138.3818  140.7719  164.8268 C.ar    1  UNL1        0.0985
     19 N         137.9489  141.9638  164.0256 N.ar    1  UNL1       -0.2468
     20 C         138.1610  144.4899  163.4565 C.3     1  UNL1        0.1152
     21 C         139.8165  145.9107  162.0457 C.3     1  UNL1        0.0862
     22 N         138.8222  144.7920  162.1444 N.3     1  UNL1       -0.2913
     23 H         139.3061  143.9417  161.8560 H       1  UNL1        0.1236
@<TRIPOS>BOND
     1    21    22    1
     2    22    20    1
     3    20    14    1
     4    14    15   ar
     5    15    16   ar
     6    16     1    1
     7     1     2   ar
     8     2     3   ar
     9     3     4    1
    10     3     5   ar
    11     5     6   ar
    12     6     7    1
    13     7     8   ar
    14     8     9   ar
    15     9    10   ar
    16    10    11    1
    17    10    12   ar
    18    12    13   ar
    19    16    17   ar
    20    17    18   ar
    21    18    19   ar
    22    19    14   ar
    23     6     1   ar
    24    13     7   ar
    25    22    23    1
@<TRIPOS>MOLECULE
*****
 23 25 0 0 0
SMALL
GASTEIGER

@<TRIPOS>ATOM
      1 C         140.4058  142.3864  167.3273 C.ar    1  UNL1        0.0382
      2 C         140.6143  142.9227  168.7126 C.ar    1  UNL1        0.0966
      3 N         140.6246  141.7618  169.6624 N.ar    1  UNL1       -0.2474
      4 C         140.8053  141.8408  171.1494 C.3     1  UNL1        0.1538
      5 N         140.4226  140.5079  168.8641 N.ar    1  UNL1       -0.1692
      6 C         140.2874  140.8940  167.4210 C.ar    1  UNL1        0.1023
      7 C         140.0716  139.9529  166.2731 C.ar    1  UNL1        0.0195
      8 C         138.7257  139.8670  165.6165 C.ar    1  UNL1        0.0039
      9 C         138.5098  138.9259  164.4685 C.ar    1  UNL1        0.0297
     10 C         139.6400  138.0706  163.9772 C.ar    1  UNL1        0.1401
     11 F         139.4242  137.1295  162.8293 F       1  UNL1       -0.2042
     12 C         140.9859  138.1565  164.6338 C.ar    1  UNL1        0.0297
     13 C         141.2017  139.0976  165.7818 C.ar    1  UNL1        0.0039
     14 C         141.3937  143.9972  163.8374 C.ar    1  UNL1        0.0749
     15 C         141.4702  143.1840  165.0954 C.ar    1  UNL1        0.0162
     16 C         140.3293  143.1997  166.0692 C.ar    1  UNL1        0.0058
     17 C         139.1119  144.0286  165.7849 C.ar    1  UNL1        0.0208
     18 C         139.0354  144.8418  164.5268 C.ar    1  UNL1        0.0985
     19 N         140.1763  144.8261  163.5531 N.ar    1  UNL1       -0.2468
     20 C         142.5345  143.9815  162.8636 C.3     1  UNL1        0.1152
     21 C         141.8532  144.2496  160.3709 C.3     1  UNL1        0.0862
     22 N         142.4683  144.8135  161.6173 N.3     1  UNL1       -0.2913
     23 H         141.9402  145.6540  161.8521 H       1  UNL1        0.1236
@<TRIPOS>BOND
     1    21    22    1
     2    22    20    1
     3    20    14    1
     4    14    15   ar
     5    15    16   ar
     6    16     1    1
     7     1     2   ar
     8     2     3   ar
     9     3     4    1
    10     3     5   ar
    11     5     6   ar
    12     6     7    1
    13     7     8   ar
    14     8     9   ar
    15     9    10   ar
    16    10    11    1
    17    10    12   ar
    18    12    13   ar
    19    16    17   ar
    20    17    18   ar
    21    18    19   ar
    22    19    14   ar
    23     6     1   ar
    24    13     7   ar
    25    22    23    1
