@<TRIPOS>MOLECULE
*****
 41 43 0 0 0
SMALL
GASTEIGER

@<TRIPOS>ATOM
      1 C         139.4058  139.6872  160.5457 C.ar    1  UNL1        0.0598
      2 C         139.2726  138.8081  161.7538 C.ar    1  UNL1        0.0422
      3 C         138.5998  139.3284  162.9893 C.ar    1  UNL1        0.1485
      4 C         138.0602  140.7277  163.0168 C.ar    1  UNL1        0.0743
      5 C         138.1935  141.6068  161.8088 C.ar    1  UNL1        0.1417
      6 C         138.8662  141.0865  160.5732 C.ar    1  UNL1        0.0416
      7 N         141.5485  138.8682  159.3257 N.am    1  UNL1       -0.2606
      8 C         140.0786  139.1670  159.3101 C.2     1  UNL1        0.2511
      9 O         139.2816  138.9455  158.0588 O.2     1  UNL1       -0.2698
     10 H         142.0716  139.0136  160.1470 H       1  UNL1        0.1571
     11 C         143.1063  136.8446  156.4027 C.ar    1  UNL1        0.0797
     12 C         143.4070  138.2504  155.9746 C.ar    1  UNL1        0.0535
     13 S         142.8601  139.1796  157.0175 S.2     1  UNL1       -0.0512
     14 C         142.2213  138.3480  158.0901 C.ar    1  UNL1        0.1654
     15 N         142.3734  136.9049  157.7101 N.ar    1  UNL1       -0.2276
     16 C         143.4738  135.5975  155.6548 C.3     1  UNL1        0.1620
     17 P         142.8426  134.2878  156.0241 P.3     1  UNL1        0.3492
     18 O         142.2115  132.9781  156.3935 O.2     1  UNL1       -0.2573
     19 O         141.7040  134.5730  155.0903 O.3     1  UNL1       -0.2938
     20 C         141.7063  134.0054  152.5550 C.3     1  UNL1        0.0352
     21 C         141.9800  134.9702  153.6704 C.3     1  UNL1        0.1515
     22 O         143.9813  134.0025  156.9580 O.3     1  UNL1       -0.2938
     23 C         144.3343  132.5851  157.2993 C.3     1  UNL1        0.1515
     24 C         145.5705  132.2912  158.0965 C.3     1  UNL1        0.0352
     25 O         138.4665  138.4493  164.1975 O.3     1  UNL1       -0.4534
     26 C         138.9073  138.9495  165.5412 C.ar    1  UNL1        0.1454
     27 C         137.9500  138.9401  166.6959 C.ar    1  UNL1        0.0388
     28 C         138.3907  139.4403  168.0397 C.ar    1  UNL1        0.0215
     29 C         139.7889  139.9497  168.2286 C.ar    1  UNL1        0.1059
     30 C         140.7462  139.9590  167.0739 C.ar    1  UNL1        0.0215
     31 C         140.3054  139.4589  165.7302 C.ar    1  UNL1        0.0388
     32 S         140.2297  140.4499  169.5723 S.O2    1  UNL1        0.0105
     33 C         140.6705  140.9500  170.9160 C.3     1  UNL1        0.1816
     34 O         139.0236  139.8191  170.2027 O.2     1  UNL1       -0.1686
     35 O         141.4358  141.0807  168.9419 O.2     1  UNL1       -0.1686
     36 O         137.6539  143.0061  161.8363 O.3     1  UNL1       -0.4765
     37 C         138.1428  143.9783  162.8685 C.3     1  UNL1        0.1954
     38 C         137.5446  143.9759  164.2441 C.3     1  UNL1        0.0500
     39 C         139.2301  144.9531  162.5253 C.3     1  UNL1        0.1855
     40 O         139.2103  145.6644  161.2049 O.3     1  UNL1       -0.3473
     41 C         140.2742  145.3832  160.1854 C.3     1  UNL1        0.1743
@<TRIPOS>BOND
     1    20    21    1
     2    21    19    1
     3    19    17    1
     4    17    18    2
     5    17    16    1
     6    16    11    1
     7    11    12   ar
     8    12    13   ar
     9    13    14   ar
    10    14     7    1
    11     7     8   am
    12     8     9    2
    13     8     1    1
    14     1     2   ar
    15     2     3   ar
    16     3    25    1
    17    25    26    1
    18    26    27   ar
    19    27    28   ar
    20    28    29   ar
    21    29    32    1
    22    32    33    1
    23    32    34    2
    24    32    35    2
    25    29    30   ar
    26    30    31   ar
    27     3     4   ar
    28     4     5   ar
    29     5    36    1
    30    36    37    1
    31    37    38    1
    32    37    39    1
    33    39    40    1
    34    40    41    1
    35     5     6   ar
    36    14    15   ar
    37    17    22    1
    38    22    23    1
    39    23    24    1
    40    15    11   ar
    41     6     1   ar
    42    31    26   ar
    43     7    10    1
@<TRIPOS>MOLECULE
*****
 41 43 0 0 0
SMALL
GASTEIGER

@<TRIPOS>ATOM
      1 C         139.4996  139.5435  160.5917 C.ar    1  UNL1        0.0598
      2 C         139.4387  138.7673  161.8738 C.ar    1  UNL1        0.0422
      3 C         138.7921  139.3702  163.0855 C.ar    1  UNL1        0.1485
      4 C         138.2063  140.7493  163.0151 C.ar    1  UNL1        0.0743
      5 C         138.2672  141.5255  161.7331 C.ar    1  UNL1        0.1417
      6 C         138.9139  140.9226  160.5213 C.ar    1  UNL1        0.0416
      7 N         141.6372  138.7865  159.3238 N.am    1  UNL1       -0.2606
      8 C         140.1463  138.9406  159.3799 C.2     1  UNL1        0.2511
      9 O         139.3019  138.4918  158.2242 O.2     1  UNL1       -0.2698
     10 H         142.1914  139.0811  160.0823 H       1  UNL1        0.1571
     11 C         143.2377  136.5769  156.5630 C.ar    1  UNL1        0.0797
     12 C         143.3202  137.9349  155.9314 C.ar    1  UNL1        0.0535
     13 S         142.7307  138.9280  156.8888 S.2     1  UNL1       -0.0512
     14 C         142.2839  138.1836  158.1120 C.ar    1  UNL1        0.1654
     15 N         142.5972  136.7306  157.9107 N.ar    1  UNL1       -0.2276
     16 C         143.7123  135.2910  155.9540 C.3     1  UNL1        0.1620
     17 P         142.9524  134.0206  156.1966 P.3     1  UNL1        0.3492
     18 O         142.1925  132.7503  156.4392 O.2     1  UNL1       -0.2573
     19 O         144.0191  133.5641  157.1473 O.3     1  UNL1       -0.2938
     20 C         145.0641  131.3318  157.9687 C.3     1  UNL1        0.0352
     21 C         144.7889  132.3083  156.8638 C.3     1  UNL1        0.1515
     22 O         141.8857  134.4772  155.2459 O.3     1  UNL1       -0.2938
     23 C         141.9715  134.1157  153.7927 C.3     1  UNL1        0.1515
     24 C         141.6959  135.1525  152.7443 C.3     1  UNL1        0.0352
     25 O         138.7312  138.5940  164.3677 O.3     1  UNL1       -0.4534
     26 C         139.5775  139.0069  165.5352 C.ar    1  UNL1        0.1454
     27 C         138.9297  139.5256  166.7849 C.ar    1  UNL1        0.0388
     28 C         139.7760  139.9385  167.9525 C.ar    1  UNL1        0.0215
     29 C         141.2701  139.8327  167.8704 C.ar    1  UNL1        0.1059
     30 C         141.9178  139.3141  166.6208 C.ar    1  UNL1        0.0215
     31 C         141.0715  138.9012  165.4533 C.ar    1  UNL1        0.0388
     32 S         142.1164  140.2456  169.0380 S.O2    1  UNL1        0.0105
     33 C         142.9627  140.6585  170.2056 C.3     1  UNL1        0.1816
     34 O         141.1901  141.3953  169.3029 O.2     1  UNL1       -0.1686
     35 O         143.0428  139.0960  168.7731 O.2     1  UNL1       -0.1686
     36 O         137.6815  142.9047  161.6627 O.3     1  UNL1       -0.4765
     37 C         138.2201  143.9940  162.5420 C.3     1  UNL1        0.1954
     38 C         137.6383  144.2124  163.9072 C.3     1  UNL1        0.0500
     39 C         139.3405  144.8650  162.0561 C.3     1  UNL1        0.1855
     40 O         139.5958  145.0075  160.5849 O.3     1  UNL1       -0.3473
     41 C         140.9848  145.2787  160.0875 C.3     1  UNL1        0.1743
@<TRIPOS>BOND
     1    20    21    1
     2    21    19    1
     3    19    17    1
     4    17    18    2
     5    17    16    1
     6    16    11    1
     7    11    12   ar
     8    12    13   ar
     9    13    14   ar
    10    14     7    1
    11     7     8   am
    12     8     9    2
    13     8     1    1
    14     1     2   ar
    15     2     3   ar
    16     3    25    1
    17    25    26    1
    18    26    27   ar
    19    27    28   ar
    20    28    29   ar
    21    29    32    1
    22    32    33    1
    23    32    34    2
    24    32    35    2
    25    29    30   ar
    26    30    31   ar
    27     3     4   ar
    28     4     5   ar
    29     5    36    1
    30    36    37    1
    31    37    38    1
    32    37    39    1
    33    39    40    1
    34    40    41    1
    35     5     6   ar
    36    14    15   ar
    37    17    22    1
    38    22    23    1
    39    23    24    1
    40    15    11   ar
    41     6     1   ar
    42    31    26   ar
    43     7    10    1
@<TRIPOS>MOLECULE
*****
 41 43 0 0 0
SMALL
GASTEIGER

@<TRIPOS>ATOM
      1 C         143.3519  140.2675  159.5528 C.ar    1  UNL1        0.0598
      2 C         144.0679  139.8320  160.7968 C.ar    1  UNL1        0.0422
      3 C         144.2778  140.8035  161.9203 C.ar    1  UNL1        0.1485
      4 C         143.7717  142.2104  161.7997 C.ar    1  UNL1        0.0743
      5 C         143.0557  142.6458  160.5557 C.ar    1  UNL1        0.1417
      6 C         142.8458  141.6744  159.4322 C.ar    1  UNL1        0.0416
      7 N         142.0847  138.2378  158.5405 N.am    1  UNL1       -0.2606
      8 C         143.1419  139.2960  158.4292 C.2     1  UNL1        0.2511
      9 O         143.9891  139.3829  157.1945 O.2     1  UNL1       -0.2698
     10 H         141.5287  138.1808  159.3509 H       1  UNL1        0.1571
     11 C         142.1692  135.3993  155.8945 C.ar    1  UNL1        0.0797
     12 C         140.9340  136.1437  155.4816 C.ar    1  UNL1        0.0535
     13 S         140.7521  137.2977  156.4226 S.2     1  UNL1       -0.0512
     14 C         141.8748  137.2663  157.4170 C.ar    1  UNL1        0.1654
     15 N         142.7505  136.0931  157.0906 N.ar    1  UNL1       -0.2276
     16 C         142.7252  134.1759  155.2282 C.3     1  UNL1        0.1620
     17 P         142.6586  132.8479  155.9225 P.3     1  UNL1        0.3492
     18 O         142.5920  131.5199  156.6167 O.2     1  UNL1       -0.2573
     19 O         141.2181  132.7130  155.5264 O.3     1  UNL1       -0.2938
     20 C         139.9306  130.6349  154.6469 C.3     1  UNL1        0.0352
     21 C         140.8331  131.8063  154.3953 C.3     1  UNL1        0.1515
     22 O         144.0991  132.9828  156.3185 O.3     1  UNL1       -0.2938
     23 C         144.4831  132.9657  157.7685 C.3     1  UNL1        0.1515
     24 C         145.7177  132.2365  158.2089 C.3     1  UNL1        0.0352
     25 O         144.9938  140.3680  163.1644 O.3     1  UNL1       -0.4534
     26 C         144.2437  140.2458  164.4576 C.ar    1  UNL1        0.1454
     27 C         143.7814  141.4789  165.1759 C.ar    1  UNL1        0.0388
     28 C         143.0313  141.3568  166.4691 C.ar    1  UNL1        0.0215
     29 C         142.7435  140.0015  167.0440 C.ar    1  UNL1        0.1059
     30 C         143.2058  138.7685  166.3258 C.ar    1  UNL1        0.0215
     31 C         143.9559  138.8907  165.0326 C.ar    1  UNL1        0.0388
     32 S         141.9933  139.8793  168.3372 S.O2    1  UNL1        0.0105
     33 C         141.2432  139.7571  169.6304 C.3     1  UNL1        0.1816
     34 O         143.0403  138.9385  168.8556 O.2     1  UNL1       -0.1686
     35 O         140.9464  140.8202  167.8189 O.2     1  UNL1       -0.1686
     36 O         142.5497  144.0527  160.4351 O.3     1  UNL1       -0.4765
     37 C         141.0868  144.3404  160.6005 C.3     1  UNL1        0.1954
     38 C         140.2379  143.4440  161.4524 C.3     1  UNL1        0.0500
     39 C         140.4729  145.5244  159.9140 C.3     1  UNL1        0.1855
     40 O         140.2868  145.5151  158.4257 O.3     1  UNL1       -0.3473
     41 C         141.4218  145.9041  157.5254 C.3     1  UNL1        0.1743
@<TRIPOS>BOND
     1    20    21    1
     2    21    19    1
     3    19    17    1
     4    17    18    2
     5    17    16    1
     6    16    11    1
     7    11    12   ar
     8    12    13   ar
     9    13    14   ar
    10    14     7    1
    11     7     8   am
    12     8     9    2
    13     8     1    1
    14     1     2   ar
    15     2     3   ar
    16     3    25    1
    17    25    26    1
    18    26    27   ar
    19    27    28   ar
    20    28    29   ar
    21    29    32    1
    22    32    33    1
    23    32    34    2
    24    32    35    2
    25    29    30   ar
    26    30    31   ar
    27     3     4   ar
    28     4     5   ar
    29     5    36    1
    30    36    37    1
    31    37    38    1
    32    37    39    1
    33    39    40    1
    34    40    41    1
    35     5     6   ar
    36    14    15   ar
    37    17    22    1
    38    22    23    1
    39    23    24    1
    40    15    11   ar
    41     6     1   ar
    42    31    26   ar
    43     7    10    1
@<TRIPOS>MOLECULE
*****
 41 43 0 0 0
SMALL
GASTEIGER

@<TRIPOS>ATOM
      1 C         139.3063  140.1945  160.7027 C.ar    1  UNL1        0.0598
      2 C         139.2261  139.2851  161.8928 C.ar    1  UNL1        0.0422
      3 C         138.6488  139.7874  163.1829 C.ar    1  UNL1        0.1485
      4 C         138.1518  141.1992  163.2828 C.ar    1  UNL1        0.0743
      5 C         138.2320  142.1085  162.0926 C.ar    1  UNL1        0.1417
      6 C         138.8092  141.6062  160.8026 C.ar    1  UNL1        0.0416
      7 N         138.9733  139.2579  158.3022 N.am    1  UNL1       -0.2606
      8 C         139.8836  139.6921  159.4125 C.2     1  UNL1        0.2511
      9 O         141.3712  139.6241  159.2327 O.2     1  UNL1       -0.2698
     10 H         137.9969  139.3026  158.4203 H       1  UNL1        0.1571
     11 C         140.5352  137.3051  155.3336 C.ar    1  UNL1        0.0797
     12 C         140.3426  138.6602  154.7198 C.ar    1  UNL1        0.0535
     13 S         139.7341  139.5567  155.7572 S.2     1  UNL1       -0.0512
     14 C         139.5506  138.7556  157.0121 C.ar    1  UNL1        0.1654
     15 N         140.0456  137.3641  156.7502 N.ar    1  UNL1       -0.2276
     16 C         141.1153  136.1023  154.6506 C.3     1  UNL1        0.1620
     17 P         142.3372  135.4375  155.2120 P.3     1  UNL1        0.3492
     18 O         143.5592  134.7729  155.7733 O.2     1  UNL1       -0.2573
     19 O         141.4777  134.3656  155.8138 O.3     1  UNL1       -0.2938
     20 C         141.1466  132.0436  154.6964 C.3     1  UNL1        0.0352
     21 C         141.8681  132.9242  155.6732 C.3     1  UNL1        0.1515
     22 O         143.1968  136.5095  154.6101 O.3     1  UNL1       -0.2938
     23 C         144.2684  137.1616  155.4326 C.3     1  UNL1        0.1515
     24 C         144.7714  138.5257  155.0636 C.3     1  UNL1        0.0352
     25 O         138.5686  138.8780  164.3732 O.3     1  UNL1       -0.4534
     26 C         139.3262  139.2114  165.6241 C.ar    1  UNL1        0.1454
     27 C         140.8243  139.2834  165.5970 C.ar    1  UNL1        0.0388
     28 C         141.5819  139.6168  166.8479 C.ar    1  UNL1        0.0215
     29 C         140.8415  139.8782  168.1260 C.ar    1  UNL1        0.1059
     30 C         139.3435  139.8062  168.1531 C.ar    1  UNL1        0.0215
     31 C         138.5858  139.4728  166.9022 C.ar    1  UNL1        0.0388
     32 S         141.5991  140.2116  169.3770 S.O2    1  UNL1        0.0105
     33 C         142.3567  140.5449  170.6279 C.3     1  UNL1        0.1816
     34 O         142.6603  140.8819  168.5556 O.2     1  UNL1       -0.1686
     35 O         140.5379  139.5413  170.1983 O.2     1  UNL1       -0.1686
     36 O         137.7349  143.5202  162.1926 O.3     1  UNL1       -0.4765
     37 C         138.4844  144.5225  163.0194 C.3     1  UNL1        0.1954
     38 C         138.2965  144.5581  164.5072 C.3     1  UNL1        0.0500
     39 C         139.4218  145.4893  162.3585 C.3     1  UNL1        0.1855
     40 O         139.4617  145.5916  160.8626 O.3     1  UNL1       -0.3473
     41 C         140.6919  145.1709  160.1145 C.3     1  UNL1        0.1743
@<TRIPOS>BOND
     1    20    21    1
     2    21    19    1
     3    19    17    1
     4    17    18    2
     5    17    16    1
     6    16    11    1
     7    11    12   ar
     8    12    13   ar
     9    13    14   ar
    10    14     7    1
    11     7     8   am
    12     8     9    2
    13     8     1    1
    14     1     2   ar
    15     2     3   ar
    16     3    25    1
    17    25    26    1
    18    26    27   ar
    19    27    28   ar
    20    28    29   ar
    21    29    32    1
    22    32    33    1
    23    32    34    2
    24    32    35    2
    25    29    30   ar
    26    30    31   ar
    27     3     4   ar
    28     4     5   ar
    29     5    36    1
    30    36    37    1
    31    37    38    1
    32    37    39    1
    33    39    40    1
    34    40    41    1
    35     5     6   ar
    36    14    15   ar
    37    17    22    1
    38    22    23    1
    39    23    24    1
    40    15    11   ar
    41     6     1   ar
    42    31    26   ar
    43     7    10    1
@<TRIPOS>MOLECULE
*****
 41 43 0 0 0
SMALL
GASTEIGER

@<TRIPOS>ATOM
      1 C         143.4354  140.9777  159.8985 C.ar    1  UNL1        0.0598
      2 C         144.1351  140.6843  161.1925 C.ar    1  UNL1        0.0422
      3 C         144.2590  141.7535  162.2372 C.ar    1  UNL1        0.1485
      4 C         143.6833  143.1160  161.9880 C.ar    1  UNL1        0.0743
      5 C         142.9835  143.4093  160.6941 C.ar    1  UNL1        0.1417
      6 C         142.8596  142.3402  159.6493 C.ar    1  UNL1        0.0416
      7 N         142.2133  138.8911  158.9483 N.am    1  UNL1       -0.2606
      8 C         143.3114  139.9085  158.8537 C.2     1  UNL1        0.2511
      9 O         144.2856  139.8568  157.7143 O.2     1  UNL1       -0.2698
     10 H         141.5739  138.9250  159.6962 H       1  UNL1        0.1571
     11 C         142.5548  135.8869  156.5145 C.ar    1  UNL1        0.0797
     12 C         141.2422  136.4666  156.0770 C.ar    1  UNL1        0.0535
     13 S         140.9546  137.6626  156.9356 S.2     1  UNL1       -0.0512
     14 C         142.0893  137.8219  157.9035 C.ar    1  UNL1        0.1654
     15 N         143.0783  136.7246  157.6433 N.ar    1  UNL1       -0.2276
     16 C         143.2259  134.6813  155.9263 C.3     1  UNL1        0.1620
     17 P         142.6033  133.3255  156.0820 P.3     1  UNL1        0.3492
     18 O         141.9806  131.9698  156.2376 O.2     1  UNL1       -0.2573
     19 O         143.0259  133.2965  157.5209 O.3     1  UNL1       -0.2938
     20 C         145.1430  131.8293  157.8600 C.3     1  UNL1        0.0352
     21 C         144.4787  133.1741  157.8736 C.3     1  UNL1        0.1515
     22 O         142.1806  133.3545  154.6430 O.3     1  UNL1       -0.2938
     23 C         141.1874  132.3529  154.1327 C.3     1  UNL1        0.1515
     24 C         140.8678  132.2927  152.6684 C.3     1  UNL1        0.0352
     25 O         144.9588  141.4601  163.5312 O.3     1  UNL1       -0.4534
     26 C         144.1606  141.1266  164.7566 C.ar    1  UNL1        0.1454
     27 C         143.6986  142.2217  165.6718 C.ar    1  UNL1        0.0388
     28 C         142.9005  141.8881  166.8973 C.ar    1  UNL1        0.0215
     29 C         142.5642  140.4595  167.2075 C.ar    1  UNL1        0.1059
     30 C         143.0262  139.3646  166.2923 C.ar    1  UNL1        0.0215
     31 C         143.8244  139.6981  165.0668 C.ar    1  UNL1        0.0388
     32 S         141.7660  140.1260  168.4329 S.O2    1  UNL1        0.0105
     33 C         140.9678  139.7925  169.6583 C.3     1  UNL1        0.1816
     34 O         143.0275  140.0855  169.2435 O.2     1  UNL1       -0.1686
     35 O         140.5046  140.1665  167.6222 O.2     1  UNL1       -0.1686
     36 O         142.4078  144.7718  160.4449 O.3     1  UNL1       -0.4765
     37 C         140.9215  144.9730  160.4645 C.3     1  UNL1        0.1954
     38 C         140.2599  145.5591  161.6764 C.3     1  UNL1        0.0500
     39 C         140.0967  144.5880  159.2721 C.3     1  UNL1        0.1855
     40 O         140.1104  145.4463  158.0420 O.3     1  UNL1       -0.3473
     41 C         141.4162  145.8603  157.4308 C.3     1  UNL1        0.1743
@<TRIPOS>BOND
     1    20    21    1
     2    21    19    1
     3    19    17    1
     4    17    18    2
     5    17    16    1
     6    16    11    1
     7    11    12   ar
     8    12    13   ar
     9    13    14   ar
    10    14     7    1
    11     7     8   am
    12     8     9    2
    13     8     1    1
    14     1     2   ar
    15     2     3   ar
    16     3    25    1
    17    25    26    1
    18    26    27   ar
    19    27    28   ar
    20    28    29   ar
    21    29    32    1
    22    32    33    1
    23    32    34    2
    24    32    35    2
    25    29    30   ar
    26    30    31   ar
    27     3     4   ar
    28     4     5   ar
    29     5    36    1
    30    36    37    1
    31    37    38    1
    32    37    39    1
    33    39    40    1
    34    40    41    1
    35     5     6   ar
    36    14    15   ar
    37    17    22    1
    38    22    23    1
    39    23    24    1
    40    15    11   ar
    41     6     1   ar
    42    31    26   ar
    43     7    10    1
@<TRIPOS>MOLECULE
*****
 41 43 0 0 0
SMALL
GASTEIGER

@<TRIPOS>ATOM
      1 C         141.9887  140.3202  160.5768 C.ar    1  UNL1        0.0598
      2 C         141.2315  139.7594  161.7438 C.ar    1  UNL1        0.0422
      3 C         140.5646  140.6836  162.7191 C.ar    1  UNL1        0.1485
      4 C         140.6548  142.1685  162.5272 C.ar    1  UNL1        0.0743
      5 C         141.4120  142.7293  161.3601 C.ar    1  UNL1        0.1417
      6 C         142.0789  141.8052  160.3849 C.ar    1  UNL1        0.0416
      7 N         142.0298  139.1400  158.2626 N.am    1  UNL1       -0.2606
      8 C         142.6557  139.3961  159.6015 C.2     1  UNL1        0.2511
      9 O         143.9486  138.7281  159.9651 O.2     1  UNL1       -0.2698
     10 H         141.1813  139.5784  158.0239 H       1  UNL1        0.1571
     11 C         143.4878  136.2035  156.1848 C.ar    1  UNL1        0.0797
     12 C         143.9587  137.3841  155.3882 C.ar    1  UNL1        0.0535
     13 S         143.4698  138.6279  156.0696 S.2     1  UNL1       -0.0512
     14 C         142.6968  138.2158  157.2873 C.ar    1  UNL1        0.1654
     15 N         142.7080  136.7176  157.3585 N.ar    1  UNL1       -0.2276
     16 C         143.7507  134.7621  155.8640 C.3     1  UNL1        0.1620
     17 P         142.6207  133.7755  155.8639 P.3     1  UNL1        0.3492
     18 O         141.4908  132.7890  155.8639 O.2     1  UNL1       -0.2573
     19 O         141.9219  134.5759  154.8051 O.3     1  UNL1       -0.2938
     20 C         141.5151  135.1029  152.2939 C.3     1  UNL1        0.0352
     21 C         142.0988  134.2219  153.3583 C.3     1  UNL1        0.1515
     22 O         143.3196  132.9751  156.9228 O.3     1  UNL1       -0.2938
     23 C         143.0069  131.5176  157.0898 C.3     1  UNL1        0.1515
     24 C         144.1199  130.5265  157.2600 C.3     1  UNL1        0.0352
     25 O         139.8073  140.1228  163.8862 O.3     1  UNL1       -0.4534
     26 C         140.4337  140.1075  165.2491 C.ar    1  UNL1        0.1454
     27 C         139.5667  140.0635  166.4725 C.ar    1  UNL1        0.0388
     28 C         140.1931  140.0481  167.8354 C.ar    1  UNL1        0.0215
     29 C         141.6864  140.0768  167.9749 C.ar    1  UNL1        0.1059
     30 C         142.5532  140.1208  166.7515 C.ar    1  UNL1        0.0215
     31 C         141.9269  140.1361  165.3886 C.ar    1  UNL1        0.0388
     32 S         142.3127  140.0615  169.3378 S.O2    1  UNL1        0.0105
     33 C         142.9391  140.0462  170.7006 C.3     1  UNL1        0.1816
     34 O         141.6364  141.3602  169.6632 O.2     1  UNL1       -0.1686
     35 O         142.9891  138.7628  169.0123 O.2     1  UNL1       -0.1686
     36 O         141.5022  144.2143  161.1683 O.3     1  UNL1       -0.4765
     37 C         141.0512  145.1402  162.2588 C.3     1  UNL1        0.1954
     38 C         141.9068  145.3400  163.4745 C.3     1  UNL1        0.0500
     39 C         139.7446  145.8663  162.1336 C.3     1  UNL1        0.1855
     40 O         138.4640  145.0927  162.0254 O.3     1  UNL1       -0.3473
     41 C         137.9163  144.3775  163.2248 C.3     1  UNL1        0.1743
@<TRIPOS>BOND
     1    20    21    1
     2    21    19    1
     3    19    17    1
     4    17    18    2
     5    17    16    1
     6    16    11    1
     7    11    12   ar
     8    12    13   ar
     9    13    14   ar
    10    14     7    1
    11     7     8   am
    12     8     9    2
    13     8     1    1
    14     1     2   ar
    15     2     3   ar
    16     3    25    1
    17    25    26    1
    18    26    27   ar
    19    27    28   ar
    20    28    29   ar
    21    29    32    1
    22    32    33    1
    23    32    34    2
    24    32    35    2
    25    29    30   ar
    26    30    31   ar
    27     3     4   ar
    28     4     5   ar
    29     5    36    1
    30    36    37    1
    31    37    38    1
    32    37    39    1
    33    39    40    1
    34    40    41    1
    35     5     6   ar
    36    14    15   ar
    37    17    22    1
    38    22    23    1
    39    23    24    1
    40    15    11   ar
    41     6     1   ar
    42    31    26   ar
    43     7    10    1
@<TRIPOS>MOLECULE
*****
 41 43 0 0 0
SMALL
GASTEIGER

@<TRIPOS>ATOM
      1 C         139.2930  140.1370  160.7373 C.ar    1  UNL1        0.0598
      2 C         139.2965  139.1647  161.8795 C.ar    1  UNL1        0.0422
      3 C         138.7325  139.5681  163.2095 C.ar    1  UNL1        0.1485
      4 C         138.1651  140.9439  163.3974 C.ar    1  UNL1        0.0743
      5 C         138.1616  141.9162  162.2553 C.ar    1  UNL1        0.1417
      6 C         138.7256  141.5128  160.9252 C.ar    1  UNL1        0.0416
      7 N         138.9833  139.0482  158.3988 N.am    1  UNL1       -0.2606
      8 C         139.8570  139.7336  159.4072 C.2     1  UNL1        0.2511
      9 O         141.2947  140.0156  159.0855 O.2     1  UNL1       -0.2698
     10 H         138.0397  138.8631  158.6100 H       1  UNL1        0.1571
     11 C         140.8850  137.5504  155.3646 C.ar    1  UNL1        0.0797
     12 C         139.9454  138.4976  154.6789 C.ar    1  UNL1        0.0535
     13 S         139.1186  139.1739  155.7322 S.2     1  UNL1       -0.0512
     14 C         139.5474  138.6447  157.0686 C.ar    1  UNL1        0.1654
     15 N         140.6390  137.6414  156.8415 N.ar    1  UNL1       -0.2276
     16 C         141.8935  136.6674  154.6916 C.3     1  UNL1        0.1620
     17 P         143.3179  136.6618  155.1617 P.3     1  UNL1        0.3492
     18 O         144.7423  136.6561  155.6318 O.2     1  UNL1       -0.2573
     19 O         143.4129  138.1342  154.8917 O.3     1  UNL1       -0.2938
     20 C         145.1069  139.7400  153.7508 C.3     1  UNL1        0.0352
     21 C         144.7529  138.8081  154.8716 C.3     1  UNL1        0.1515
     22 O         143.2229  135.1893  155.4317 O.3     1  UNL1       -0.2938
     23 C         143.6439  134.6423  156.7634 C.3     1  UNL1        0.1515
     24 C         143.2291  133.2598  157.1714 C.3     1  UNL1        0.0352
     25 O         138.7359  138.5958  164.3517 O.3     1  UNL1       -0.4534
     26 C         139.1355  139.0518  165.7237 C.ar    1  UNL1        0.1454
     27 C         138.1295  139.0530  166.8364 C.ar    1  UNL1        0.0388
     28 C         138.5291  139.5091  168.2083 C.ar    1  UNL1        0.0215
     29 C         139.9348  139.9640  168.4676 C.ar    1  UNL1        0.1059
     30 C         140.9408  139.9628  167.3550 C.ar    1  UNL1        0.0215
     31 C         140.5411  139.5067  165.9830 C.ar    1  UNL1        0.0388
     32 S         140.3345  140.4201  169.8396 S.O2    1  UNL1        0.0105
     33 C         140.7341  140.8761  171.2116 C.3     1  UNL1        0.1816
     34 O         139.0401  139.8989  170.3899 O.2     1  UNL1       -0.1686
     35 O         141.6289  140.9412  169.2893 O.2     1  UNL1       -0.1686
     36 O         137.5942  143.2920  162.4432 O.3     1  UNL1       -0.4765
     37 C         138.2588  144.2557  163.3810 C.3     1  UNL1        0.1954
     38 C         137.7450  144.4147  164.7813 C.3     1  UNL1        0.0500
     39 C         139.4372  145.0604  162.9186 C.3     1  UNL1        0.1855
     40 O         140.8267  144.5220  163.0895 O.3     1  UNL1       -0.3473
     41 C         141.9087  145.4008  163.6437 C.3     1  UNL1        0.1743
@<TRIPOS>BOND
     1    20    21    1
     2    21    19    1
     3    19    17    1
     4    17    18    2
     5    17    16    1
     6    16    11    1
     7    11    12   ar
     8    12    13   ar
     9    13    14   ar
    10    14     7    1
    11     7     8   am
    12     8     9    2
    13     8     1    1
    14     1     2   ar
    15     2     3   ar
    16     3    25    1
    17    25    26    1
    18    26    27   ar
    19    27    28   ar
    20    28    29   ar
    21    29    32    1
    22    32    33    1
    23    32    34    2
    24    32    35    2
    25    29    30   ar
    26    30    31   ar
    27     3     4   ar
    28     4     5   ar
    29     5    36    1
    30    36    37    1
    31    37    38    1
    32    37    39    1
    33    39    40    1
    34    40    41    1
    35     5     6   ar
    36    14    15   ar
    37    17    22    1
    38    22    23    1
    39    23    24    1
    40    15    11   ar
    41     6     1   ar
    42    31    26   ar
    43     7    10    1
@<TRIPOS>MOLECULE
*****
 41 43 0 0 0
SMALL
GASTEIGER

@<TRIPOS>ATOM
      1 C         141.9752  139.5660  160.9582 C.ar    1  UNL1        0.0598
      2 C         141.2705  138.8521  162.0734 C.ar    1  UNL1        0.0422
      3 C         140.6430  139.6362  163.1875 C.ar    1  UNL1        0.1485
      4 C         140.7202  141.1342  163.1864 C.ar    1  UNL1        0.0743
      5 C         141.4249  141.8481  162.0712 C.ar    1  UNL1        0.1417
      6 C         142.0524  141.0640  160.9571 C.ar    1  UNL1        0.0416
      7 N         141.8780  138.6185  158.5409 N.am    1  UNL1       -0.2606
      8 C         142.6028  138.7819  159.8440 C.2     1  UNL1        0.2511
      9 O         143.9552  138.1611  160.0329 O.2     1  UNL1       -0.2698
     10 H         140.9904  139.0260  158.4170 H       1  UNL1        0.1571
     11 C         143.2012  135.9932  156.0067 C.ar    1  UNL1        0.0797
     12 C         143.7416  137.2625  155.4177 C.ar    1  UNL1        0.0535
     13 S         143.3117  138.4005  156.2955 S.2     1  UNL1       -0.0512
     14 C         142.5056  137.8344  157.4267 C.ar    1  UNL1        0.1654
     15 N         142.4373  136.3467  157.2483 N.ar    1  UNL1       -0.2276
     16 C         143.3913  134.6128  155.4515 C.3     1  UNL1        0.1620
     17 P         142.3316  133.5705  155.6536 P.3     1  UNL1        0.3492
     18 O         141.2721  132.5282  155.8558 O.2     1  UNL1       -0.2573
     19 O         141.5499  134.1431  154.5087 O.3     1  UNL1       -0.2938
     20 C         142.1580  132.4740  152.6129 C.3     1  UNL1        0.0352
     21 C         141.9872  133.8832  153.0976 C.3     1  UNL1        0.1515
     22 O         143.1135  132.9979  156.7986 O.3     1  UNL1       -0.2938
     23 C         144.5030  132.4798  156.5732 C.3     1  UNL1        0.1515
     24 C         145.3531  132.0797  157.7425 C.3     1  UNL1        0.0352
     25 O         139.9382  138.9224  164.3028 O.3     1  UNL1       -0.4534
     26 C         140.1940  139.3185  165.7267 C.ar    1  UNL1        0.1454
     27 C         139.0419  139.5818  166.6505 C.ar    1  UNL1        0.0388
     28 C         139.2977  139.9779  168.0744 C.ar    1  UNL1        0.0215
     29 C         140.7056  140.1108  168.5746 C.ar    1  UNL1        0.1059
     30 C         141.8577  139.8476  167.6508 C.ar    1  UNL1        0.0215
     31 C         141.6019  139.4514  166.2269 C.ar    1  UNL1        0.0388
     32 S         140.9614  140.5070  169.9985 S.O2    1  UNL1        0.0105
     33 C         141.2172  140.9031  171.4225 C.3     1  UNL1        0.1816
     34 O         142.2015  141.2358  169.5730 O.2     1  UNL1       -0.1686
     35 O         139.7214  139.7781  170.4241 O.2     1  UNL1       -0.1686
     36 O         141.5020  143.3461  162.0701 O.3     1  UNL1       -0.4765
     37 C         142.2609  144.0588  163.1500 C.3     1  UNL1        0.1954
     38 C         141.6963  145.3042  163.7666 C.3     1  UNL1        0.0500
     39 C         143.5844  143.5261  163.6134 C.3     1  UNL1        0.1855
     40 O         144.6722  143.2511  162.6180 O.3     1  UNL1       -0.3473
     41 C         145.2920  141.8871  162.5419 C.3     1  UNL1        0.1743
@<TRIPOS>BOND
     1    20    21    1
     2    21    19    1
     3    19    17    1
     4    17    18    2
     5    17    16    1
     6    16    11    1
     7    11    12   ar
     8    12    13   ar
     9    13    14   ar
    10    14     7    1
    11     7     8   am
    12     8     9    2
    13     8     1    1
    14     1     2   ar
    15     2     3   ar
    16     3    25    1
    17    25    26    1
    18    26    27   ar
    19    27    28   ar
    20    28    29   ar
    21    29    32    1
    22    32    33    1
    23    32    34    2
    24    32    35    2
    25    29    30   ar
    26    30    31   ar
    27     3     4   ar
    28     4     5   ar
    29     5    36    1
    30    36    37    1
    31    37    38    1
    32    37    39    1
    33    39    40    1
    34    40    41    1
    35     5     6   ar
    36    14    15   ar
    37    17    22    1
    38    22    23    1
    39    23    24    1
    40    15    11   ar
    41     6     1   ar
    42    31    26   ar
    43     7    10    1
@<TRIPOS>MOLECULE
*****
 41 43 0 0 0
SMALL
GASTEIGER

@<TRIPOS>ATOM
      1 C         143.1577  139.9341  160.1410 C.ar    1  UNL1        0.0598
      2 C         143.8761  139.8489  161.4550 C.ar    1  UNL1        0.0422
      3 C         144.0995  141.0886  162.2693 C.ar    1  UNL1        0.1485
      4 C         143.6045  142.4135  161.7697 C.ar    1  UNL1        0.0743
      5 C         142.8861  142.4987  160.4557 C.ar    1  UNL1        0.1417
      6 C         142.6627  141.2590  159.6414 C.ar    1  UNL1        0.0416
      7 N         142.6309  138.8040  157.8617 N.am    1  UNL1       -0.2606
      8 C         142.9343  138.6944  159.3266 C.2     1  UNL1        0.2511
      9 O         143.0142  137.3452  159.9771 O.2     1  UNL1       -0.2698
     10 H         142.5784  139.6895  157.4347 H       1  UNL1        0.1571
     11 C         142.7588  135.4256  155.9548 C.ar    1  UNL1        0.0797
     12 C         141.3684  135.8875  155.6332 C.ar    1  UNL1        0.0535
     13 S         141.1512  137.2093  156.3084 S.2     1  UNL1       -0.0512
     14 C         142.4075  137.5642  157.0472 C.ar    1  UNL1        0.1654
     15 N         143.4010  136.4619  156.8287 N.ar    1  UNL1       -0.2276
     16 C         143.3953  134.1513  155.4850 C.3     1  UNL1        0.1620
     17 P         142.7419  132.8335  155.7794 P.3     1  UNL1        0.3492
     18 O         142.0886  131.5158  156.0739 O.2     1  UNL1       -0.2573
     19 O         142.5546  132.5980  154.3099 O.3     1  UNL1       -0.2938
     20 C         140.6838  132.8665  152.5272 C.3     1  UNL1        0.0352
     21 C         141.2041  132.2207  153.7770 C.3     1  UNL1        0.1515
     22 O         142.9294  133.0691  157.2489 O.3     1  UNL1       -0.2938
     23 C         144.3087  133.0705  157.8384 C.3     1  UNL1        0.1515
     24 C         145.1322  131.8169  157.8229 C.3     1  UNL1        0.0352
     25 O         144.8180  141.0035  163.5834 O.3     1  UNL1       -0.4534
     26 C         144.0462  140.7558  164.8455 C.ar    1  UNL1        0.1454
     27 C         143.5074  141.9124  165.6343 C.ar    1  UNL1        0.0388
     28 C         142.7356  141.6647  166.8964 C.ar    1  UNL1        0.0215
     29 C         142.5025  140.2605  167.3697 C.ar    1  UNL1        0.1059
     30 C         143.0412  139.1040  166.5808 C.ar    1  UNL1        0.0215
     31 C         143.8130  139.3517  165.3187 C.ar    1  UNL1        0.0388
     32 S         141.7306  140.0128  168.6318 S.O2    1  UNL1        0.0105
     33 C         140.9588  139.7652  169.8939 C.3     1  UNL1        0.1816
     34 O         143.0168  139.8666  169.3897 O.2     1  UNL1       -0.1686
     35 O         140.4444  140.1590  167.8739 O.2     1  UNL1       -0.1686
     36 O         142.3910  143.8236  159.9561 O.3     1  UNL1       -0.4765
     37 C         140.9805  144.2509  160.2350 C.3     1  UNL1        0.1954
     38 C         140.3651  145.3679  159.4454 C.3     1  UNL1        0.0500
     39 C         140.1853  143.5611  161.3037 C.3     1  UNL1        0.1855
     40 O         138.7226  143.8555  161.4580 O.3     1  UNL1       -0.3473
     41 C         137.9907  143.3974  162.6846 C.3     1  UNL1        0.1743
@<TRIPOS>BOND
     1    20    21    1
     2    21    19    1
     3    19    17    1
     4    17    18    2
     5    17    16    1
     6    16    11    1
     7    11    12   ar
     8    12    13   ar
     9    13    14   ar
    10    14     7    1
    11     7     8   am
    12     8     9    2
    13     8     1    1
    14     1     2   ar
    15     2     3   ar
    16     3    25    1
    17    25    26    1
    18    26    27   ar
    19    27    28   ar
    20    28    29   ar
    21    29    32    1
    22    32    33    1
    23    32    34    2
    24    32    35    2
    25    29    30   ar
    26    30    31   ar
    27     3     4   ar
    28     4     5   ar
    29     5    36    1
    30    36    37    1
    31    37    38    1
    32    37    39    1
    33    39    40    1
    34    40    41    1
    35     5     6   ar
    36    14    15   ar
    37    17    22    1
    38    22    23    1
    39    23    24    1
    40    15    11   ar
    41     6     1   ar
    42    31    26   ar
    43     7    10    1
