@<TRIPOS>MOLECULE
*****
 33 35 0 0 0
SMALL
GASTEIGER

@<TRIPOS>ATOM
      1 C         141.0414  138.5191  164.8071 C.3     1  UNL1        0.1688
      2 C         141.1819  137.7523  163.5256 C.3     1  UNL1        0.0609
      3 C         140.0644  137.7524  162.5251 C.3     1  UNL1        0.0758
      4 N         138.8063  138.5194  162.8060 N.3     1  UNL1       -0.2724
      5 C         138.6657  139.2862  164.0875 C.3     1  UNL1        0.0758
      6 C         139.7833  139.2861  165.0881 C.3     1  UNL1        0.0609
      7 O         142.1589  138.5189  165.8076 O.3     1  UNL1       -0.4776
      8 C         142.6884  141.1912  168.6935 C.ar    1  UNL1       -0.0191
      9 C         142.3121  139.9214  167.9892 C.ar    1  UNL1        0.0342
     10 C         142.5352  139.7887  166.5119 C.ar    1  UNL1        0.1555
     11 C         143.1347  140.9258  165.7388 C.ar    1  UNL1        0.1151
     12 N         143.3578  140.7931  164.2615 N.ar    1  UNL1       -0.2408
     13 C         143.9573  141.9302  163.4884 C.ar    1  UNL1        0.0989
     14 C         144.3336  143.2000  164.1927 C.ar    1  UNL1        0.0207
     15 C         144.1105  143.3327  165.6700 C.ar    1  UNL1        0.0032
     16 C         143.5110  142.1956  166.4431 C.ar    1  UNL1        0.0204
     17 C         143.2879  142.3283  167.9205 C.ar    1  UNL1       -0.0026
     18 C         142.4652  141.3239  170.1710 C.3     1  UNL1        0.0265
     19 C         141.0803  141.5437  170.7035 C.3     1  UNL1        0.0047
     20 C         140.4170  143.9158  169.8769 C.3     1  UNL1        0.0000
     21 C         140.1306  142.4466  169.9735 C.3     1  UNL1        0.0003
     22 C         137.6887  138.5195  161.8055 C.3     1  UNL1        0.0722
     23 C         137.6157  139.5955  160.7628 C.3     1  UNL1        0.0192
     24 C         138.5580  140.7610  160.8206 C.3     1  UNL1        0.0284
     25 C         138.1197  142.0492  161.4517 C.3     1  UNL1        0.1689
     26 S         139.1383  142.9835  162.0346 S.O2    1  UNL1        0.0407
     27 O         140.1394  141.8672  162.0747 O.2     1  UNL1       -0.1575
     28 O         138.1372  144.0998  161.9946 O.2     1  UNL1       -0.1575
     29 N         140.1568  143.9178  162.6175 N.3     1  UNL1       -0.1833
     30 H         139.7437  144.8503  162.6023 H       1  UNL1        0.1484
     31 C         140.6701  143.6942  164.0091 C.3     1  UNL1        0.0911
     32 C         139.7168  143.6823  165.1673 C.3     1  UNL1        0.0188
     33 C         139.9722  142.7822  166.3397 C.3     1  UNL1        0.0015
@<TRIPOS>BOND
     1    20    21    1
     2    21    19    1
     3    19    18    1
     4    18     8    1
     5     8     9   ar
     6     9    10   ar
     7    10     7    1
     8     7     1    1
     9     1     2    1
    10     2     3    1
    11     3     4    1
    12     4    22    1
    13    22    23    1
    14    23    24    1
    15    24    25    1
    16    25    26    1
    17    26    27    2
    18    26    28    2
    19    26    29    1
    20    29    31    1
    21    31    32    1
    22    32    33    1
    23     4     5    1
    24     5     6    1
    25    10    11   ar
    26    11    12   ar
    27    12    13   ar
    28    13    14   ar
    29    14    15   ar
    30    15    16   ar
    31    16    17   ar
    32    17     8   ar
    33     6     1    1
    34    16    11   ar
    35    29    30    1
@<TRIPOS>MOLECULE
*****
 33 35 0 0 0
SMALL
GASTEIGER

@<TRIPOS>ATOM
      1 C         138.5707  140.4255  164.4561 C.3     1  UNL1        0.1688
      2 C         138.5365  141.9225  164.3678 C.3     1  UNL1        0.0609
      3 C         138.3526  142.5914  163.0379 C.3     1  UNL1        0.0758
      4 N         138.2028  141.7633  161.7962 N.3     1  UNL1       -0.2724
      5 C         138.2369  140.2663  161.8844 C.3     1  UNL1        0.0758
      6 C         138.4209  139.5974  163.2144 C.3     1  UNL1        0.0609
      7 O         138.7546  139.7566  165.7860 O.3     1  UNL1       -0.4776
      8 C         142.6667  139.1708  166.1054 C.ar    1  UNL1       -0.0191
      9 C         141.2955  139.2904  165.5093 C.ar    1  UNL1        0.0342
     10 C         140.1259  139.6370  166.3821 C.ar    1  UNL1        0.1555
     11 C         140.3275  139.8640  167.8511 C.ar    1  UNL1        0.1151
     12 N         139.1579  140.2105  168.7239 N.ar    1  UNL1       -0.2408
     13 C         139.3595  140.4375  170.1928 C.ar    1  UNL1        0.0989
     14 C         140.7308  140.3179  170.7889 C.ar    1  UNL1        0.0207
     15 C         141.9004  139.9714  169.9161 C.ar    1  UNL1        0.0032
     16 C         141.6987  139.7444  168.4472 C.ar    1  UNL1        0.0204
     17 C         142.8684  139.3978  167.5743 C.ar    1  UNL1       -0.0026
     18 C         143.8364  138.8242  165.2325 C.3     1  UNL1        0.0265
     19 C         144.1897  139.7020  164.0686 C.3     1  UNL1        0.0047
     20 C         145.4924  141.7320  163.1032 C.3     1  UNL1        0.0000
     21 C         145.2334  140.7683  164.2230 C.3     1  UNL1        0.0003
     22 C         138.0188  142.4322  160.4663 C.3     1  UNL1        0.0722
     23 C         139.0767  142.3055  159.4103 C.3     1  UNL1        0.0192
     24 C         140.3128  143.1522  159.4817 C.3     1  UNL1        0.0284
     25 C         140.2065  144.6064  159.8334 C.3     1  UNL1        0.1689
     26 S         140.7766  145.1089  161.1268 S.O2    1  UNL1        0.0407
     27 O         142.1512  144.7149  160.6740 O.2     1  UNL1       -0.1575
     28 O         139.4019  145.5029  161.5796 O.2     1  UNL1       -0.1575
     29 N         141.3466  145.6113  162.4200 N.3     1  UNL1       -0.1833
     30 H         140.9025  146.5101  162.6081 H       1  UNL1        0.1484
     31 C         141.2102  144.7913  163.6686 C.3     1  UNL1        0.0911
     32 C         141.9837  143.5145  163.8156 C.3     1  UNL1        0.0188
     33 C         142.1339  142.8798  165.1664 C.3     1  UNL1        0.0015
@<TRIPOS>BOND
     1    20    21    1
     2    21    19    1
     3    19    18    1
     4    18     8    1
     5     8     9   ar
     6     9    10   ar
     7    10     7    1
     8     7     1    1
     9     1     2    1
    10     2     3    1
    11     3     4    1
    12     4    22    1
    13    22    23    1
    14    23    24    1
    15    24    25    1
    16    25    26    1
    17    26    27    2
    18    26    28    2
    19    26    29    1
    20    29    31    1
    21    31    32    1
    22    32    33    1
    23     4     5    1
    24     5     6    1
    25    10    11   ar
    26    11    12   ar
    27    12    13   ar
    28    13    14   ar
    29    14    15   ar
    30    15    16   ar
    31    16    17   ar
    32    17     8   ar
    33     6     1    1
    34    16    11   ar
    35    29    30    1
@<TRIPOS>MOLECULE
*****
 33 35 0 0 0
SMALL
GASTEIGER

@<TRIPOS>ATOM
      1 C         139.2310  139.2515  164.9857 C.3     1  UNL1        0.1688
      2 C         139.5029  138.1669  163.9858 C.3     1  UNL1        0.0609
      3 C         138.8730  138.2255  162.6258 C.3     1  UNL1        0.0758
      4 N         137.9713  139.3688  162.2655 N.3     1  UNL1       -0.2724
      5 C         137.6994  140.4534  163.2653 C.3     1  UNL1        0.0758
      6 C         138.3293  140.3948  164.6255 C.3     1  UNL1        0.0609
      7 O         139.8609  139.1928  166.3458 O.3     1  UNL1       -0.4776
      8 C         142.7175  141.9350  166.0808 C.ar    1  UNL1       -0.0191
      9 C         141.6890  140.9170  165.6861 C.ar    1  UNL1        0.0342
     10 C         140.8894  140.2108  166.7405 C.ar    1  UNL1        0.1555
     11 C         141.1184  140.5225  168.1899 C.ar    1  UNL1        0.1151
     12 N         140.3189  139.8163  169.2443 N.ar    1  UNL1       -0.2408
     13 C         140.5479  140.1281  170.6936 C.ar    1  UNL1        0.0989
     14 C         141.5764  141.1461  171.0883 C.ar    1  UNL1        0.0207
     15 C         142.3760  141.8523  170.0339 C.ar    1  UNL1        0.0032
     16 C         142.1470  141.5405  168.5846 C.ar    1  UNL1        0.0204
     17 C         142.9465  142.2467  167.5301 C.ar    1  UNL1       -0.0026
     18 C         143.5171  142.6412  165.0263 C.3     1  UNL1        0.0265
     19 C         144.8364  142.0807  164.5844 C.3     1  UNL1        0.0047
     20 C         145.0277  139.4998  164.3552 C.3     1  UNL1        0.0000
     21 C         144.8793  140.8526  163.7243 C.3     1  UNL1        0.0003
     22 C         137.3415  139.4275  160.9055 C.3     1  UNL1        0.0722
     23 C         138.1294  139.9377  159.7354 C.3     1  UNL1        0.0192
     24 C         138.5360  141.3803  159.6767 C.3     1  UNL1        0.0284
     25 C         139.7227  141.8574  160.4602 C.3     1  UNL1        0.1689
     26 S         139.5689  142.9758  161.4480 S.O2    1  UNL1        0.0407
     27 O         140.7526  142.4628  162.2133 O.2     1  UNL1       -0.1575
     28 O         138.3852  143.4888  160.6828 O.2     1  UNL1       -0.1575
     29 N         139.4151  144.0941  162.4357 N.3     1  UNL1       -0.1833
     30 H         139.5666  144.9627  161.9230 H       1  UNL1        0.1484
     31 C         138.1294  144.2559  163.1912 C.3     1  UNL1        0.0911
     32 C         138.1251  144.1798  164.6894 C.3     1  UNL1        0.0188
     33 C         139.4020  143.9148  165.4305 C.3     1  UNL1        0.0015
@<TRIPOS>BOND
     1    20    21    1
     2    21    19    1
     3    19    18    1
     4    18     8    1
     5     8     9   ar
     6     9    10   ar
     7    10     7    1
     8     7     1    1
     9     1     2    1
    10     2     3    1
    11     3     4    1
    12     4    22    1
    13    22    23    1
    14    23    24    1
    15    24    25    1
    16    25    26    1
    17    26    27    2
    18    26    28    2
    19    26    29    1
    20    29    31    1
    21    31    32    1
    22    32    33    1
    23     4     5    1
    24     5     6    1
    25    10    11   ar
    26    11    12   ar
    27    12    13   ar
    28    13    14   ar
    29    14    15   ar
    30    15    16   ar
    31    16    17   ar
    32    17     8   ar
    33     6     1    1
    34    16    11   ar
    35    29    30    1
@<TRIPOS>MOLECULE
*****
 33 35 0 0 0
SMALL
GASTEIGER

@<TRIPOS>ATOM
      1 C         142.5033  142.8191  164.7862 C.3     1  UNL1        0.1688
      2 C         141.8375  143.9608  164.0765 C.3     1  UNL1        0.0609
      3 C         141.9904  144.1126  162.5921 C.3     1  UNL1        0.0758
      4 N         142.8090  143.1229  161.8173 N.3     1  UNL1       -0.2724
      5 C         143.4747  141.9813  162.5268 C.3     1  UNL1        0.0758
      6 C         143.3218  141.8294  164.0113 C.3     1  UNL1        0.0609
      7 O         142.3504  142.6672  166.2706 O.3     1  UNL1       -0.4776
      8 C         139.2392  140.2112  166.4665 C.ar    1  UNL1       -0.0191
      9 C         140.2916  141.1240  165.9104 C.ar    1  UNL1        0.0342
     10 C         141.2980  141.7545  166.8267 C.ar    1  UNL1        0.1555
     11 C         141.2519  141.4722  168.2992 C.ar    1  UNL1        0.1151
     12 N         142.2583  142.1027  169.2156 N.ar    1  UNL1       -0.2408
     13 C         142.2122  141.8205  170.6880 C.ar    1  UNL1        0.0989
     14 C         141.1598  140.9077  171.2441 C.ar    1  UNL1        0.0207
     15 C         140.1534  140.2772  170.3278 C.ar    1  UNL1        0.0032
     16 C         140.1995  140.5594  168.8553 C.ar    1  UNL1        0.0204
     17 C         139.1931  139.9289  167.9389 C.ar    1  UNL1       -0.0026
     18 C         138.2329  139.5807  165.5501 C.3     1  UNL1        0.0265
     19 C         138.6819  138.6145  164.4941 C.3     1  UNL1        0.0047
     20 C         141.0019  137.4462  164.5414 C.3     1  UNL1        0.0000
     21 C         139.5376  137.4404  164.8669 C.3     1  UNL1        0.0003
     22 C         142.9618  143.2747  160.3328 C.3     1  UNL1        0.0722
     23 C         142.0003  142.5916  159.4060 C.3     1  UNL1        0.0192
     24 C         140.6195  143.1459  159.2161 C.3     1  UNL1        0.0284
     25 C         139.4224  142.3155  159.5729 C.3     1  UNL1        0.1689
     26 S         138.5563  142.7078  160.7332 S.O2    1  UNL1        0.0407
     27 O         138.0502  141.2992  160.8317 O.2     1  UNL1       -0.1575
     28 O         139.0624  144.1164  160.6347 O.2     1  UNL1       -0.1575
     29 N         137.6903  143.1001  161.8933 N.3     1  UNL1       -0.1833
     30 H         136.7660  142.7061  161.7173 H       1  UNL1        0.1484
     31 C         138.0746  142.6972  163.2862 C.3     1  UNL1        0.0911
     32 C         137.5862  143.4944  164.4592 C.3     1  UNL1        0.0188
     33 C         138.4452  144.5789  165.0389 C.3     1  UNL1        0.0015
@<TRIPOS>BOND
     1    20    21    1
     2    21    19    1
     3    19    18    1
     4    18     8    1
     5     8     9   ar
     6     9    10   ar
     7    10     7    1
     8     7     1    1
     9     1     2    1
    10     2     3    1
    11     3     4    1
    12     4    22    1
    13    22    23    1
    14    23    24    1
    15    24    25    1
    16    25    26    1
    17    26    27    2
    18    26    28    2
    19    26    29    1
    20    29    31    1
    21    31    32    1
    22    32    33    1
    23     4     5    1
    24     5     6    1
    25    10    11   ar
    26    11    12   ar
    27    12    13   ar
    28    13    14   ar
    29    14    15   ar
    30    15    16   ar
    31    16    17   ar
    32    17     8   ar
    33     6     1    1
    34    16    11   ar
    35    29    30    1
@<TRIPOS>MOLECULE
*****
 33 35 0 0 0
SMALL
GASTEIGER

@<TRIPOS>ATOM
      1 C         139.6553  142.7248  164.6534 C.3     1  UNL1        0.1688
      2 C         138.3955  142.0011  164.2800 C.3     1  UNL1        0.0609
      3 C         137.9580  141.9478  162.8462 C.3     1  UNL1        0.0758
      4 N         138.7802  142.6183  161.7858 N.3     1  UNL1       -0.2724
      5 C         140.0398  143.3421  162.1591 C.3     1  UNL1        0.0758
      6 C         140.4774  143.3953  163.5929 C.3     1  UNL1        0.0609
      7 O         140.0928  142.7781  166.0871 O.3     1  UNL1       -0.4776
      8 C         142.3083  139.4978  166.3723 C.ar    1  UNL1       -0.0191
      9 C         141.5365  140.6400  165.7807 C.ar    1  UNL1        0.0342
     10 C         140.8646  141.6360  166.6787 C.ar    1  UNL1        0.1555
     11 C         140.9644  141.4899  168.1683 C.ar    1  UNL1        0.1151
     12 N         140.2924  142.4860  169.0662 N.ar    1  UNL1       -0.2408
     13 C         140.3922  142.3399  170.5557 C.ar    1  UNL1        0.0989
     14 C         141.1640  141.1978  171.1472 C.ar    1  UNL1        0.0207
     15 C         141.8360  140.2017  170.2493 C.ar    1  UNL1        0.0032
     16 C         141.7362  140.3478  168.7598 C.ar    1  UNL1        0.0204
     17 C         142.4081  139.3518  167.8618 C.ar    1  UNL1       -0.0026
     18 C         142.9803  138.5018  165.4742 C.3     1  UNL1        0.0265
     19 C         143.7096  138.9686  164.2494 C.3     1  UNL1        0.0047
     20 C         145.3532  140.9584  163.9510 C.3     1  UNL1        0.0000
     21 C         145.0899  139.5429  164.3717 C.3     1  UNL1        0.0003
     22 C         138.3427  142.5651  160.3520 C.3     1  UNL1        0.0722
     23 C         138.8945  141.5113  159.4381 C.3     1  UNL1        0.0192
     24 C         138.9043  140.0748  159.8694 C.3     1  UNL1        0.0284
     25 C         140.1476  139.4772  160.4586 C.3     1  UNL1        0.1689
     26 S         140.1302  138.9387  161.8586 S.O2    1  UNL1        0.0407
     27 O         141.0304  140.0546  162.2991 O.2     1  UNL1       -0.1575
     28 O         139.2299  137.8227  161.4181 O.2     1  UNL1       -0.1575
     29 N         140.1127  138.4001  163.2585 N.3     1  UNL1       -0.1833
     30 H         140.7303  138.9953  163.8106 H       1  UNL1        0.1484
     31 C         138.8177  138.3051  164.0094 C.3     1  UNL1        0.0911
     32 C         138.8219  137.9768  165.4731 C.3     1  UNL1        0.0188
     33 C         138.2325  138.9409  166.4596 C.3     1  UNL1        0.0015
@<TRIPOS>BOND
     1    20    21    1
     2    21    19    1
     3    19    18    1
     4    18     8    1
     5     8     9   ar
     6     9    10   ar
     7    10     7    1
     8     7     1    1
     9     1     2    1
    10     2     3    1
    11     3     4    1
    12     4    22    1
    13    22    23    1
    14    23    24    1
    15    24    25    1
    16    25    26    1
    17    26    27    2
    18    26    28    2
    19    26    29    1
    20    29    31    1
    21    31    32    1
    22    32    33    1
    23     4     5    1
    24     5     6    1
    25    10    11   ar
    26    11    12   ar
    27    12    13   ar
    28    13    14   ar
    29    14    15   ar
    30    15    16   ar
    31    16    17   ar
    32    17     8   ar
    33     6     1    1
    34    16    11   ar
    35    29    30    1
@<TRIPOS>MOLECULE
*****
 33 35 0 0 0
SMALL
GASTEIGER

@<TRIPOS>ATOM
      1 C         142.2550  138.8982  165.1043 C.3     1  UNL1        0.1688
      2 C         141.3810  138.2043  164.1020 C.3     1  UNL1        0.0609
      3 C         141.8936  137.9365  162.7180 C.3     1  UNL1        0.0758
      4 N         143.2803  138.3627  162.3363 N.3     1  UNL1       -0.2724
      5 C         144.1542  139.0566  163.3386 C.3     1  UNL1        0.0758
      6 C         143.6416  139.3244  164.7226 C.3     1  UNL1        0.0609
      7 O         141.7424  139.1660  166.4883 O.3     1  UNL1       -0.4776
      8 C         140.4559  142.9049  166.1489 C.ar    1  UNL1       -0.0191
      9 C         140.9416  141.5342  165.7811 C.ar    1  UNL1        0.0342
     10 C         141.2567  140.5367  166.8561 C.ar    1  UNL1        0.1555
     11 C         141.0860  140.9098  168.2989 C.ar    1  UNL1        0.1151
     12 N         141.4010  139.9123  169.3739 N.ar    1  UNL1       -0.2408
     13 C         141.2304  140.2855  170.8167 C.ar    1  UNL1        0.0989
     14 C         140.7447  141.6562  171.1844 C.ar    1  UNL1        0.0207
     15 C         140.4296  142.6537  170.1095 C.ar    1  UNL1        0.0032
     16 C         140.6003  142.2805  168.6667 C.ar    1  UNL1        0.0204
     17 C         140.2853  143.2781  167.5917 C.ar    1  UNL1       -0.0026
     18 C         140.1409  143.9025  165.0738 C.3     1  UNL1        0.0265
     19 C         138.8381  144.6455  165.0986 C.3     1  UNL1        0.0047
     20 C         137.7454  142.9129  163.5005 C.3     1  UNL1        0.0000
     21 C         137.6118  144.0297  164.4930 C.3     1  UNL1        0.0003
     22 C         143.7929  138.0949  160.9523 C.3     1  UNL1        0.0722
     23 C         143.4386  139.0233  159.8285 C.3     1  UNL1        0.0192
     24 C         143.8227  140.4713  159.9025 C.3     1  UNL1        0.0284
     25 C         142.8990  141.4601  160.5498 C.3     1  UNL1        0.1689
     26 S         143.4512  142.7142  161.1601 S.O2    1  UNL1        0.0407
     27 O         144.8285  142.1205  161.1340 O.2     1  UNL1       -0.1575
     28 O         142.0740  143.3079  161.1863 O.2     1  UNL1       -0.1575
     29 N         144.0034  143.9682  161.7704 N.3     1  UNL1       -0.1833
     30 H         143.5481  144.7501  161.2995 H       1  UNL1        0.1484
     31 C         143.8635  144.2096  163.2443 C.3     1  UNL1        0.0911
     32 C         143.8906  143.0534  164.1996 C.3     1  UNL1        0.0188
     33 C         144.2546  143.2769  165.6374 C.3     1  UNL1        0.0015
@<TRIPOS>BOND
     1    20    21    1
     2    21    19    1
     3    19    18    1
     4    18     8    1
     5     8     9   ar
     6     9    10   ar
     7    10     7    1
     8     7     1    1
     9     1     2    1
    10     2     3    1
    11     3     4    1
    12     4    22    1
    13    22    23    1
    14    23    24    1
    15    24    25    1
    16    25    26    1
    17    26    27    2
    18    26    28    2
    19    26    29    1
    20    29    31    1
    21    31    32    1
    22    32    33    1
    23     4     5    1
    24     5     6    1
    25    10    11   ar
    26    11    12   ar
    27    12    13   ar
    28    13    14   ar
    29    14    15   ar
    30    15    16   ar
    31    16    17   ar
    32    17     8   ar
    33     6     1    1
    34    16    11   ar
    35    29    30    1
@<TRIPOS>MOLECULE
*****
 33 35 0 0 0
SMALL
GASTEIGER

@<TRIPOS>ATOM
      1 C         143.7664  140.2168  164.9632 C.3     1  UNL1        0.1688
      2 C         143.8734  139.4298  163.6907 C.3     1  UNL1        0.0609
      3 C         144.2533  140.1178  162.4131 C.3     1  UNL1        0.0758
      4 N         144.5262  141.5927  162.4078 N.3     1  UNL1       -0.2724
      5 C         144.4192  142.3797  163.6803 C.3     1  UNL1        0.0758
      6 C         144.0393  141.6918  164.9580 C.3     1  UNL1        0.0609
      7 O         143.3866  139.5289  166.2408 O.3     1  UNL1       -0.4776
      8 C         139.4208  139.5982  166.3733 C.ar    1  UNL1       -0.0191
      9 C         140.8194  139.4791  165.8445 C.ar    1  UNL1        0.0342
     10 C         141.9880  139.6480  166.7697 C.ar    1  UNL1        0.1555
     11 C         141.7579  139.9360  168.2237 C.ar    1  UNL1        0.1151
     12 N         142.9264  140.1049  169.1489 N.ar    1  UNL1       -0.2408
     13 C         142.6964  140.3928  170.6029 C.ar    1  UNL1        0.0989
     14 C         141.2977  140.5119  171.1317 C.ar    1  UNL1        0.0207
     15 C         140.1292  140.3431  170.2065 C.ar    1  UNL1        0.0032
     16 C         140.3593  140.0551  168.7526 C.ar    1  UNL1        0.0204
     17 C         139.1907  139.8862  167.8273 C.ar    1  UNL1       -0.0026
     18 C         138.2522  139.4293  165.4481 C.3     1  UNL1        0.0265
     19 C         138.4089  139.7104  163.9830 C.3     1  UNL1        0.0047
     20 C         139.5910  137.6930  162.8505 C.3     1  UNL1        0.0000
     21 C         138.3907  138.5807  162.9965 C.3     1  UNL1        0.0003
     22 C         144.9060  142.2806  161.1302 C.3     1  UNL1        0.0722
     23 C         143.8579  142.9745  160.3116 C.3     1  UNL1        0.0192
     24 C         142.4081  142.6509  160.5194 C.3     1  UNL1        0.0284
     25 C         141.4846  143.6824  161.0965 C.3     1  UNL1        0.1689
     26 S         141.2256  143.7147  162.5737 S.O2    1  UNL1        0.0407
     27 O         141.0844  142.2214  162.5816 O.2     1  UNL1       -0.1575
     28 O         141.3669  145.2080  162.5657 O.2     1  UNL1       -0.1575
     29 N         140.9667  143.7471  164.0508 N.3     1  UNL1       -0.1833
     30 H         141.7353  144.2678  164.4731 H       1  UNL1        0.1484
     31 C         139.6965  144.3473  164.5766 C.3     1  UNL1        0.0911
     32 C         138.4502  143.5161  164.6542 C.3     1  UNL1        0.0188
     33 C         137.6246  143.2856  163.4233 C.3     1  UNL1        0.0015
@<TRIPOS>BOND
     1    20    21    1
     2    21    19    1
     3    19    18    1
     4    18     8    1
     5     8     9   ar
     6     9    10   ar
     7    10     7    1
     8     7     1    1
     9     1     2    1
    10     2     3    1
    11     3     4    1
    12     4    22    1
    13    22    23    1
    14    23    24    1
    15    24    25    1
    16    25    26    1
    17    26    27    2
    18    26    28    2
    19    26    29    1
    20    29    31    1
    21    31    32    1
    22    32    33    1
    23     4     5    1
    24     5     6    1
    25    10    11   ar
    26    11    12   ar
    27    12    13   ar
    28    13    14   ar
    29    14    15   ar
    30    15    16   ar
    31    16    17   ar
    32    17     8   ar
    33     6     1    1
    34    16    11   ar
    35    29    30    1
@<TRIPOS>MOLECULE
*****
 33 35 0 0 0
SMALL
GASTEIGER

@<TRIPOS>ATOM
      1 C         138.3550  140.0717  163.6519 C.3     1  UNL1        0.1688
      2 C         138.0796  141.5369  163.8174 C.3     1  UNL1        0.0609
      3 C         138.0810  142.4402  162.6199 C.3     1  UNL1        0.0758
      4 N         138.3578  141.8784  161.2570 N.3     1  UNL1       -0.2724
      5 C         138.6332  140.4132  161.0914 C.3     1  UNL1        0.0758
      6 C         138.6318  139.5098  162.2889 C.3     1  UNL1        0.0609
      7 O         138.3536  139.1684  164.8494 O.3     1  UNL1       -0.4776
      8 C         139.8268  140.0422  168.4293 C.ar    1  UNL1       -0.0191
      9 C         138.8465  139.8146  167.3171 C.ar    1  UNL1        0.0342
     10 C         139.3339  139.3959  165.9617 C.ar    1  UNL1        0.1555
     11 C         140.8017  139.2048  165.7186 C.ar    1  UNL1        0.1151
     12 N         141.2892  138.7861  164.3632 N.ar    1  UNL1       -0.2408
     13 C         142.7569  138.5950  164.1201 C.ar    1  UNL1        0.0989
     14 C         143.7372  138.8225  165.2324 C.ar    1  UNL1        0.0207
     15 C         143.2498  139.2412  166.5878 C.ar    1  UNL1        0.0032
     16 C         141.7821  139.4323  166.8308 C.ar    1  UNL1        0.0204
     17 C         141.2945  139.8510  168.1863 C.ar    1  UNL1       -0.0026
     18 C         139.3393  140.4609  169.7848 C.3     1  UNL1        0.0265
     19 C         139.5162  141.8790  170.2403 C.3     1  UNL1        0.0047
     20 C         141.7589  143.1510  169.9202 C.3     1  UNL1        0.0000
     21 C         140.8399  142.3340  170.7794 C.3     1  UNL1        0.0003
     22 C         138.3592  142.7817  160.0595 C.3     1  UNL1        0.0722
     23 C         139.5573  142.8304  159.1581 C.3     1  UNL1        0.0192
     24 C         140.4579  144.0298  159.1718 C.3     1  UNL1        0.0284
     25 C         140.1886  145.1590  160.1216 C.3     1  UNL1        0.1689
     26 S         140.8594  145.1870  161.4630 S.O2    1  UNL1        0.0407
     27 O         142.1231  144.6700  160.8419 O.2     1  UNL1       -0.1575
     28 O         139.5958  145.7040  162.0841 O.2     1  UNL1       -0.1575
     29 N         141.5302  145.2150  162.8044 N.3     1  UNL1       -0.1833
     30 H         141.7548  146.1904  163.0009 H       1  UNL1        0.1484
     31 C         140.8157  144.6835  164.0115 C.3     1  UNL1        0.0911
     32 C         141.2524  143.3897  164.6323 C.3     1  UNL1        0.0188
     33 C         140.7238  142.9870  165.9770 C.3     1  UNL1        0.0015
@<TRIPOS>BOND
     1    20    21    1
     2    21    19    1
     3    19    18    1
     4    18     8    1
     5     8     9   ar
     6     9    10   ar
     7    10     7    1
     8     7     1    1
     9     1     2    1
    10     2     3    1
    11     3     4    1
    12     4    22    1
    13    22    23    1
    14    23    24    1
    15    24    25    1
    16    25    26    1
    17    26    27    2
    18    26    28    2
    19    26    29    1
    20    29    31    1
    21    31    32    1
    22    32    33    1
    23     4     5    1
    24     5     6    1
    25    10    11   ar
    26    11    12   ar
    27    12    13   ar
    28    13    14   ar
    29    14    15   ar
    30    15    16   ar
    31    16    17   ar
    32    17     8   ar
    33     6     1    1
    34    16    11   ar
    35    29    30    1
@<TRIPOS>MOLECULE
*****
 33 35 0 0 0
SMALL
GASTEIGER

@<TRIPOS>ATOM
      1 C         143.3005  140.1033  164.1407 C.3     1  UNL1        0.1688
      2 C         142.9876  140.7836  165.4405 C.3     1  UNL1        0.0609
      3 C         143.3670  142.2202  165.6455 C.3     1  UNL1        0.0758
      4 N         144.0593  142.9767  164.5507 N.3     1  UNL1       -0.2724
      5 C         144.3722  142.2965  163.2509 C.3     1  UNL1        0.0758
      6 C         143.9928  140.8598  163.0459 C.3     1  UNL1        0.0609
      7 O         142.9211  138.6667  163.9357 O.3     1  UNL1       -0.4776
      8 C         139.1878  137.5001  164.6075 C.ar    1  UNL1       -0.0191
      9 C         140.6216  137.8705  164.8459 C.ar    1  UNL1        0.0342
     10 C         141.4872  138.2963  163.6973 C.ar    1  UNL1        0.1555
     11 C         140.9189  138.3518  162.3101 C.ar    1  UNL1        0.1151
     12 N         141.7845  138.7775  161.1615 N.ar    1  UNL1       -0.2408
     13 C         141.2162  138.8330  159.7744 C.ar    1  UNL1        0.0989
     14 C         139.7824  138.4626  159.5360 C.ar    1  UNL1        0.0207
     15 C         138.9168  138.0368  160.6847 C.ar    1  UNL1        0.0032
     16 C         139.4851  137.9814  162.0717 C.ar    1  UNL1        0.0204
     17 C         138.6195  137.5556  163.2205 C.ar    1  UNL1       -0.0026
     18 C         138.3222  137.0743  165.7562 C.3     1  UNL1        0.0265
     19 C         137.7980  138.0974  166.7198 C.3     1  UNL1        0.0047
     20 C         139.3559  139.9234  167.7140 C.3     1  UNL1        0.0000
     21 C         138.3395  139.4960  166.6970 C.3     1  UNL1        0.0003
     22 C         144.4388  144.4133  164.7557 C.3     1  UNL1        0.0722
     23 C         143.6498  145.5001  164.0874 C.3     1  UNL1        0.0192
     24 C         142.1813  145.3183  163.8419 C.3     1  UNL1        0.0284
     25 C         141.6532  145.2923  162.4382 C.3     1  UNL1        0.1689
     26 S         140.2298  144.8959  162.1795 S.O2    1  UNL1        0.0407
     27 O         139.8565  146.3399  162.0204 O.2     1  UNL1       -0.1575
     28 O         140.6031  143.4519  162.3387 O.2     1  UNL1       -0.1575
     29 N         138.8065  144.4994  161.9209 N.3     1  UNL1       -0.1833
     30 H         138.5683  144.8464  160.9918 H       1  UNL1        0.1484
     31 C         138.4126  143.0525  161.9569 C.3     1  UNL1        0.0911
     32 C         137.5388  142.5404  163.0635 C.3     1  UNL1        0.0188
     33 C         137.4475  141.0664  163.3259 C.3     1  UNL1        0.0015
@<TRIPOS>BOND
     1    20    21    1
     2    21    19    1
     3    19    18    1
     4    18     8    1
     5     8     9   ar
     6     9    10   ar
     7    10     7    1
     8     7     1    1
     9     1     2    1
    10     2     3    1
    11     3     4    1
    12     4    22    1
    13    22    23    1
    14    23    24    1
    15    24    25    1
    16    25    26    1
    17    26    27    2
    18    26    28    2
    19    26    29    1
    20    29    31    1
    21    31    32    1
    22    32    33    1
    23     4     5    1
    24     5     6    1
    25    10    11   ar
    26    11    12   ar
    27    12    13   ar
    28    13    14   ar
    29    14    15   ar
    30    15    16   ar
    31    16    17   ar
    32    17     8   ar
    33     6     1    1
    34    16    11   ar
    35    29    30    1
