@<TRIPOS>MOLECULE
*****
 43 46 0 0 0
SMALL
GASTEIGER

@<TRIPOS>ATOM
      1 C         141.3027  140.9148  162.6072 C.3     1  UNL1        0.0799
      2 C         141.3676  140.6615  164.0843 C.ar    1  UNL1        0.0374
      3 C         141.0136  141.7543  165.0489 C.ar    1  UNL1        0.0023
      4 C         141.0785  141.5011  166.5259 C.ar    1  UNL1        0.0181
      5 C         140.7245  142.5939  167.4905 C.ar    1  UNL1        0.0082
      6 C         140.7894  142.3407  168.9676 C.ar    1  UNL1        0.0347
      7 BR        140.4355  143.4335  169.9322 Br      1  UNL1       -0.0490
      8 C         141.2084  140.9946  169.4800 C.ar    1  UNL1        0.0082
      9 C         141.5624  139.9018  168.5154 C.ar    1  UNL1        0.0197
     10 C         141.4974  140.1550  167.0384 C.ar    1  UNL1        0.0844
     11 N         141.8514  139.0622  166.0738 N.ar    1  UNL1       -0.2119
     12 C         141.7865  139.3155  164.5968 C.ar    1  UNL1        0.2211
     13 O         142.1405  138.2226  163.6322 O.3     1  UNL1       -0.4563
     14 C         141.1191  137.1878  163.2634 C.3     1  UNL1        0.2542
     15 C         140.1062  140.4668  161.8214 C.ar    1  UNL1        0.0148
     16 C         138.7266  140.8370  162.2793 C.ar    1  UNL1       -0.0014
     17 C         137.5300  140.3891  161.4934 C.ar    1  UNL1        0.0029
     18 C         137.7130  139.5709  160.2496 C.ar    1  UNL1        0.0392
     19 C         139.0927  139.2006  159.7917 C.ar    1  UNL1        0.1657
     20 C         140.2892  139.6486  160.5776 C.ar    1  UNL1        0.1702
     21 F         141.6687  139.2784  160.1196 F       1  UNL1       -0.2013
     22 O         139.2757  138.3824  158.5479 O.3     1  UNL1       -0.4692
     23 C         139.7554  139.0345  157.2850 C.3     1  UNL1        0.2526
     24 C         142.4343  141.6160  161.9161 C.3     1  UNL1        0.1162
     25 O         143.3439  140.4685  162.2412 O.3     1  UNL1       -0.3820
     26 H         144.2300  140.6487  161.8899 H       1  UNL1        0.2107
     27 C         140.0002  144.7173  162.3714 C.ar    1  UNL1        0.2271
     28 C         140.9099  143.5698  162.6965 C.ar    1  UNL1        0.0559
     29 C         141.5246  142.7636  161.5910 C.ar    1  UNL1        0.0117
     30 C         141.2297  143.1049  160.1605 C.ar    1  UNL1        0.0559
     31 C         140.3200  144.2525  159.8354 C.ar    1  UNL1        0.2271
     32 N         139.7053  145.0587  160.9409 N.ar    1  UNL1       -0.1767
     33 O         139.3855  145.5235  163.4770 O.3     1  UNL1       -0.4602
     34 C         137.8506  143.7589  164.6084 C.3     1  UNL1        0.0512
     35 C         138.8850  144.8399  164.7148 C.3     1  UNL1        0.2072
     36 O         140.0251  144.5938  158.4048 O.3     1  UNL1       -0.4602
     37 C         140.6359  145.8150  157.7839 C.3     1  UNL1        0.2072
     38 C         142.0971  145.8333  157.4453 C.3     1  UNL1        0.0512
     39 C         143.5659  142.3173  161.2250 C.3     1  UNL1        0.0491
     40 C         144.5342  143.1423  162.0197 C.3     1  UNL1        0.0750
     41 N         144.8455  142.7726  163.4397 N.3     1  UNL1       -0.2702
     42 C         145.8261  141.6757  163.7314 C.3     1  UNL1        0.0897
     43 C         144.1763  143.4999  164.5681 C.3     1  UNL1        0.0897
@<TRIPOS>BOND
     1    34    35    1
     2    35    33    1
     3    33    27    1
     4    27    28   ar
     5    28    29   ar
     6    29    24    1
     7    24    25    1
     8    24    39    1
     9    39    40    1
    10    40    41    1
    11    41    42    1
    12    41    43    1
    13    24     1    1
    14     1     2    1
    15     2     3   ar
    16     3     4   ar
    17     4     5   ar
    18     5     6   ar
    19     6     7    1
    20     6     8   ar
    21     8     9   ar
    22     9    10   ar
    23    10    11   ar
    24    11    12   ar
    25    12    13    1
    26    13    14    1
    27     1    15    1
    28    15    16   ar
    29    16    17   ar
    30    17    18   ar
    31    18    19   ar
    32    19    22    1
    33    22    23    1
    34    19    20   ar
    35    20    21    1
    36    29    30   ar
    37    30    31   ar
    38    31    36    1
    39    36    37    1
    40    37    38    1
    41    31    32   ar
    42    32    27   ar
    43    12     2   ar
    44    20    15   ar
    45    10     4   ar
    46    25    26    1
@<TRIPOS>MOLECULE
*****
 43 46 0 0 0
SMALL
GASTEIGER

@<TRIPOS>ATOM
      1 C         140.7184  140.5833  163.0820 C.3     1  UNL1        0.0799
      2 C         140.4200  140.5071  164.5501 C.ar    1  UNL1        0.0374
      3 C         140.6437  141.7055  165.4241 C.ar    1  UNL1        0.0023
      4 C         140.3453  141.6293  166.8921 C.ar    1  UNL1        0.0181
      5 C         140.5690  142.8277  167.7661 C.ar    1  UNL1        0.0082
      6 C         140.2706  142.7515  169.2342 C.ar    1  UNL1        0.0347
      7 BR        140.4943  143.9499  170.1082 Br      1  UNL1       -0.0490
      8 C         139.7486  141.4769  169.8282 C.ar    1  UNL1        0.0082
      9 C         139.5249  140.2785  168.9543 C.ar    1  UNL1        0.0197
     10 C         139.8233  140.3547  167.4862 C.ar    1  UNL1        0.0844
     11 N         139.5996  139.1563  166.6123 N.ar    1  UNL1       -0.2119
     12 C         139.8980  139.2326  165.1442 C.ar    1  UNL1        0.2211
     13 O         139.6743  138.0342  164.2702 O.3     1  UNL1       -0.4563
     14 C         140.6904  136.9312  164.2353 C.3     1  UNL1        0.2542
     15 C         141.8595  139.7978  162.5068 C.ar    1  UNL1        0.0148
     16 C         143.1967  139.8107  163.1863 C.ar    1  UNL1       -0.0014
     17 C         144.3378  139.0251  162.6111 C.ar    1  UNL1        0.0029
     18 C         144.1417  138.2267  161.3565 C.ar    1  UNL1        0.0392
     19 C         142.8044  138.2139  160.6770 C.ar    1  UNL1        0.1657
     20 C         141.6633  138.9994  161.2522 C.ar    1  UNL1        0.1702
     21 F         140.3262  138.9865  160.5728 F       1  UNL1       -0.2013
     22 O         142.6083  137.4155  159.4224 O.3     1  UNL1       -0.4692
     23 C         142.5743  138.1064  158.0914 C.3     1  UNL1        0.2526
     24 C         139.8757  141.4451  162.1892 C.3     1  UNL1        0.1162
     25 O         138.6829  140.5851  162.4850 O.3     1  UNL1       -0.3820
     26 H         137.9119  140.9251  162.0044 H       1  UNL1        0.2107
     27 C         142.9233  143.9349  162.7017 C.ar    1  UNL1        0.2271
     28 C         141.7305  143.0749  162.9975 C.ar    1  UNL1        0.0559
     29 C         141.0686  142.3051  161.8934 C.ar    1  UNL1        0.0117
     30 C         141.5995  142.3954  160.4934 C.ar    1  UNL1        0.0559
     31 C         142.7923  143.2554  160.1976 C.ar    1  UNL1        0.2271
     32 N         143.4543  144.0251  161.3018 N.ar    1  UNL1       -0.1767
     33 O         143.5853  144.7047  163.8060 O.3     1  UNL1       -0.4602
     34 C         144.9213  142.6543  164.6783 C.3     1  UNL1        0.0512
     35 C         144.2561  143.9746  164.9316 C.3     1  UNL1        0.2072
     36 O         143.3232  143.3456  158.7976 O.3     1  UNL1       -0.4602
     37 C         142.5564  144.0995  157.7518 C.3     1  UNL1        0.2072
     38 C         141.8157  145.3505  158.1211 C.3     1  UNL1        0.0512
     39 C         139.0330  142.3069  161.2963 C.3     1  UNL1        0.0491
     40 C         137.9483  143.1602  161.8838 C.3     1  UNL1        0.0750
     41 N         138.2865  144.2052  162.9054 N.3     1  UNL1       -0.2702
     42 C         139.0389  145.4370  162.4975 C.3     1  UNL1        0.0897
     43 C         137.8722  144.0184  164.3348 C.3     1  UNL1        0.0897
@<TRIPOS>BOND
     1    34    35    1
     2    35    33    1
     3    33    27    1
     4    27    28   ar
     5    28    29   ar
     6    29    24    1
     7    24    25    1
     8    24    39    1
     9    39    40    1
    10    40    41    1
    11    41    42    1
    12    41    43    1
    13    24     1    1
    14     1     2    1
    15     2     3   ar
    16     3     4   ar
    17     4     5   ar
    18     5     6   ar
    19     6     7    1
    20     6     8   ar
    21     8     9   ar
    22     9    10   ar
    23    10    11   ar
    24    11    12   ar
    25    12    13    1
    26    13    14    1
    27     1    15    1
    28    15    16   ar
    29    16    17   ar
    30    17    18   ar
    31    18    19   ar
    32    19    22    1
    33    22    23    1
    34    19    20   ar
    35    20    21    1
    36    29    30   ar
    37    30    31   ar
    38    31    36    1
    39    36    37    1
    40    37    38    1
    41    31    32   ar
    42    32    27   ar
    43    12     2   ar
    44    20    15   ar
    45    10     4   ar
    46    25    26    1
@<TRIPOS>MOLECULE
*****
 43 46 0 0 0
SMALL
GASTEIGER

@<TRIPOS>ATOM
      1 C         140.7283  140.5415  163.1065 C.3     1  UNL1        0.0799
      2 C         140.4282  140.4788  164.5749 C.ar    1  UNL1        0.0374
      3 C         140.6506  141.6852  165.4380 C.ar    1  UNL1        0.0023
      4 C         140.3506  141.6226  166.9063 C.ar    1  UNL1        0.0181
      5 C         140.5730  142.8290  167.7695 C.ar    1  UNL1        0.0082
      6 C         140.2729  142.7663  169.2378 C.ar    1  UNL1        0.0347
      7 BR        140.4953  143.9728  170.1010 Br      1  UNL1       -0.0490
      8 C         139.7505  141.4972  169.8430 C.ar    1  UNL1        0.0082
      9 C         139.5281  140.2907  168.9799 C.ar    1  UNL1        0.0197
     10 C         139.8281  140.3534  167.5116 C.ar    1  UNL1        0.0844
     11 N         139.6057  139.1469  166.6485 N.ar    1  UNL1       -0.2119
     12 C         139.9058  139.2096  165.1801 C.ar    1  UNL1        0.2211
     13 O         139.6834  138.0032  164.3170 O.3     1  UNL1       -0.4563
     14 C         140.7110  136.9112  164.2752 C.3     1  UNL1        0.2542
     15 C         141.8816  139.7656  162.5429 C.ar    1  UNL1        0.0148
     16 C         143.2286  139.8417  163.1985 C.ar    1  UNL1       -0.0014
     17 C         144.3820  139.0657  162.6349 C.ar    1  UNL1        0.0029
     18 C         144.1884  138.2137  161.4157 C.ar    1  UNL1        0.0392
     19 C         142.8414  138.1376  160.7600 C.ar    1  UNL1        0.1657
     20 C         141.6880  138.9136  161.3236 C.ar    1  UNL1        0.1702
     21 F         140.3411  138.8375  160.6680 F       1  UNL1       -0.2013
     22 O         142.6478  137.2856  159.5408 O.3     1  UNL1       -0.4692
     23 C         142.4484  137.9287  158.2003 C.3     1  UNL1        0.2526
     24 C         139.8750  141.3802  162.2018 C.3     1  UNL1        0.1162
     25 O         138.6910  140.5145  162.5161 O.3     1  UNL1       -0.3820
     26 H         137.9155  140.8392  162.0322 H       1  UNL1        0.2107
     27 C         142.7929  143.1525  160.1783 C.ar    1  UNL1        0.2271
     28 C         141.6089  142.2869  160.4926 C.ar    1  UNL1        0.0559
     29 C         141.0590  142.2458  161.8875 C.ar    1  UNL1        0.0117
     30 C         141.6931  143.0705  162.9682 C.ar    1  UNL1        0.0559
     31 C         142.8771  143.9361  162.6539 C.ar    1  UNL1        0.2271
     32 N         143.4270  143.9772  161.2590 N.ar    1  UNL1       -0.1767
     33 O         143.3428  143.1936  158.7833 O.3     1  UNL1       -0.4602
     34 C         144.4678  141.0413  157.8604 C.3     1  UNL1        0.0512
     35 C         144.5813  142.4191  158.4423 C.3     1  UNL1        0.2072
     36 O         143.5112  144.7608  163.7347 O.3     1  UNL1       -0.4602
     37 C         144.1712  144.0881  164.9017 C.3     1  UNL1        0.2072
     38 C         144.8507  142.7635  164.7179 C.3     1  UNL1        0.0512
     39 C         139.0217  142.2188  161.2971 C.3     1  UNL1        0.0491
     40 C         137.9199  143.0590  161.8716 C.3     1  UNL1        0.0750
     41 N         138.2201  144.0492  162.9576 N.3     1  UNL1       -0.2702
     42 C         138.9315  145.3285  162.6303 C.3     1  UNL1        0.0897
     43 C         137.8089  143.7601  164.3708 C.3     1  UNL1        0.0897
@<TRIPOS>BOND
     1    34    35    1
     2    35    33    1
     3    33    27    1
     4    27    28   ar
     5    28    29   ar
     6    29    24    1
     7    24    25    1
     8    24    39    1
     9    39    40    1
    10    40    41    1
    11    41    42    1
    12    41    43    1
    13    24     1    1
    14     1     2    1
    15     2     3   ar
    16     3     4   ar
    17     4     5   ar
    18     5     6   ar
    19     6     7    1
    20     6     8   ar
    21     8     9   ar
    22     9    10   ar
    23    10    11   ar
    24    11    12   ar
    25    12    13    1
    26    13    14    1
    27     1    15    1
    28    15    16   ar
    29    16    17   ar
    30    17    18   ar
    31    18    19   ar
    32    19    22    1
    33    22    23    1
    34    19    20   ar
    35    20    21    1
    36    29    30   ar
    37    30    31   ar
    38    31    36    1
    39    36    37    1
    40    37    38    1
    41    31    32   ar
    42    32    27   ar
    43    12     2   ar
    44    20    15   ar
    45    10     4   ar
    46    25    26    1
@<TRIPOS>MOLECULE
*****
 43 46 0 0 0
SMALL
GASTEIGER

@<TRIPOS>ATOM
      1 C         142.1568  140.9942  163.0279 C.3     1  UNL1        0.0799
      2 C         142.4298  141.3421  164.4613 C.ar    1  UNL1        0.0374
      3 C         141.6319  140.6962  165.5549 C.ar    1  UNL1        0.0023
      4 C         141.9048  141.0440  166.9883 C.ar    1  UNL1        0.0181
      5 C         141.1068  140.3981  168.0819 C.ar    1  UNL1        0.0082
      6 C         141.3798  140.7460  169.5152 C.ar    1  UNL1        0.0347
      7 BR        140.5818  140.1000  170.6089 Br      1  UNL1       -0.0490
      8 C         142.4506  141.7398  169.8550 C.ar    1  UNL1        0.0082
      9 C         143.2486  142.3858  168.7613 C.ar    1  UNL1        0.0197
     10 C         142.9757  142.0379  167.3280 C.ar    1  UNL1        0.0844
     11 N         143.7736  142.6839  166.2344 N.ar    1  UNL1       -0.2119
     12 C         143.5007  142.3360  164.8010 C.ar    1  UNL1        0.2211
     13 O         144.2986  142.9820  163.7074 O.3     1  UNL1       -0.4563
     14 C         144.0429  144.4130  163.3374 C.3     1  UNL1        0.2542
     15 C         141.4268  141.9640  162.1467 C.ar    1  UNL1        0.0148
     16 C         142.1050  142.5350  160.9368 C.ar    1  UNL1       -0.0014
     17 C         141.3750  143.5048  160.0555 C.ar    1  UNL1        0.0029
     18 C         139.9668  143.9035  160.3841 C.ar    1  UNL1        0.0392
     19 C         139.2886  143.3324  161.5941 C.ar    1  UNL1        0.1657
     20 C         140.0186  142.3626  162.4754 C.ar    1  UNL1        0.1702
     21 F         139.3404  141.7916  163.6853 F       1  UNL1       -0.2013
     22 O         137.8804  143.7311  161.9228 O.3     1  UNL1       -0.4692
     23 C         137.5833  144.4429  163.2093 C.3     1  UNL1        0.2526
     24 C         142.6139  139.6765  162.4759 C.3     1  UNL1        0.1162
     25 O         144.0371  140.1472  162.5307 O.3     1  UNL1       -0.3820
     26 H         144.6226  139.4453  162.2059 H       1  UNL1        0.2107
     27 C         139.1217  138.1554  163.5897 C.ar    1  UNL1        0.2271
     28 C         140.5449  138.6261  163.6445 C.ar    1  UNL1        0.0559
     29 C         141.1908  139.2058  162.4211 C.ar    1  UNL1        0.0117
     30 C         140.4134  139.3148  161.1429 C.ar    1  UNL1        0.0559
     31 C         138.9903  138.8441  161.0880 C.ar    1  UNL1        0.2271
     32 N         138.3444  138.2644  162.3114 N.ar    1  UNL1       -0.1767
     33 O         138.4759  137.5756  164.8131 O.3     1  UNL1       -0.4602
     34 C         137.4061  138.1496  167.1101 C.3     1  UNL1        0.0512
     35 C         138.5067  138.3327  166.1077 C.3     1  UNL1        0.2072
     36 O         138.2130  138.9531  159.8097 O.3     1  UNL1       -0.4602
     37 C         138.2881  140.2077  158.9910 C.3     1  UNL1        0.2072
     38 C         138.8671  140.1670  157.6078 C.3     1  UNL1        0.0512
     39 C         143.0710  138.3588  161.9238 C.3     1  UNL1        0.0491
     40 C         144.0125  138.3206  160.7568 C.3     1  UNL1        0.0750
     41 N         143.5596  138.8055  159.4115 N.3     1  UNL1       -0.2702
     42 C         142.7260  137.9177  158.5359 C.3     1  UNL1        0.0897
     43 C         143.9403  140.1782  158.9419 C.3     1  UNL1        0.0897
@<TRIPOS>BOND
     1    34    35    1
     2    35    33    1
     3    33    27    1
     4    27    28   ar
     5    28    29   ar
     6    29    24    1
     7    24    25    1
     8    24    39    1
     9    39    40    1
    10    40    41    1
    11    41    42    1
    12    41    43    1
    13    24     1    1
    14     1     2    1
    15     2     3   ar
    16     3     4   ar
    17     4     5   ar
    18     5     6   ar
    19     6     7    1
    20     6     8   ar
    21     8     9   ar
    22     9    10   ar
    23    10    11   ar
    24    11    12   ar
    25    12    13    1
    26    13    14    1
    27     1    15    1
    28    15    16   ar
    29    16    17   ar
    30    17    18   ar
    31    18    19   ar
    32    19    22    1
    33    22    23    1
    34    19    20   ar
    35    20    21    1
    36    29    30   ar
    37    30    31   ar
    38    31    36    1
    39    36    37    1
    40    37    38    1
    41    31    32   ar
    42    32    27   ar
    43    12     2   ar
    44    20    15   ar
    45    10     4   ar
    46    25    26    1
@<TRIPOS>MOLECULE
*****
 43 46 0 0 0
SMALL
GASTEIGER

@<TRIPOS>ATOM
      1 C         141.2928  140.9064  162.6039 C.3     1  UNL1        0.0799
      2 C         141.3490  140.6647  164.0832 C.ar    1  UNL1        0.0374
      3 C         141.0092  141.7711  165.0374 C.ar    1  UNL1        0.0023
      4 C         141.0653  141.5294  166.5167 C.ar    1  UNL1        0.0181
      5 C         140.7255  142.6359  167.4708 C.ar    1  UNL1        0.0082
      6 C         140.7817  142.3941  168.9502 C.ar    1  UNL1        0.0347
      7 BR        140.4419  143.5006  169.9043 Br      1  UNL1       -0.0490
      8 C         141.1777  141.0461  169.4754 C.ar    1  UNL1        0.0082
      9 C         141.5175  139.9396  168.5212 C.ar    1  UNL1        0.0197
     10 C         141.4613  140.1813  167.0419 C.ar    1  UNL1        0.0844
     11 N         141.8011  139.0749  166.0878 N.ar    1  UNL1       -0.2119
     12 C         141.7450  139.3166  164.6084 C.ar    1  UNL1        0.2211
     13 O         142.0848  138.2102  163.6543 O.3     1  UNL1       -0.4563
     14 C         141.0581  137.1704  163.3152 C.3     1  UNL1        0.2542
     15 C         140.0996  140.4551  161.8150 C.ar    1  UNL1        0.0148
     16 C         138.7184  140.8323  162.2624 C.ar    1  UNL1       -0.0014
     17 C         137.5251  140.3811  161.4734 C.ar    1  UNL1        0.0029
     18 C         137.7129  139.5526  160.2372 C.ar    1  UNL1        0.0392
     19 C         139.0941  139.1754  159.7898 C.ar    1  UNL1        0.1657
     20 C         140.2874  139.6267  160.5787 C.ar    1  UNL1        0.1702
     21 F         141.6685  139.2495  160.1313 F       1  UNL1       -0.2013
     22 O         139.2819  138.3470  158.5535 O.3     1  UNL1       -0.4692
     23 C         139.8861  138.9596  157.3248 C.3     1  UNL1        0.2526
     24 C         142.4300  141.5993  161.9134 C.3     1  UNL1        0.1162
     25 O         143.3322  140.4471  162.2429 O.3     1  UNL1       -0.3820
     26 H         144.2199  140.6213  161.8930 H       1  UNL1        0.2107
     27 C         140.3423  144.2488  159.8226 C.ar    1  UNL1        0.2271
     28 C         141.2445  143.0966  160.1520 C.ar    1  UNL1        0.0559
     29 C         141.5278  142.7515  161.5840 C.ar    1  UNL1        0.0117
     30 C         140.9090  143.5587  162.6865 C.ar    1  UNL1        0.0559
     31 C         140.0069  144.7109  162.3570 C.ar    1  UNL1        0.2271
     32 N         139.7235  145.0559  160.9251 N.ar    1  UNL1       -0.1767
     33 O         140.0589  144.5938  158.3905 O.3     1  UNL1       -0.4602
     34 C         140.3887  146.1635  156.3467 C.3     1  UNL1        0.0512
     35 C         140.6749  145.8165  157.7776 C.3     1  UNL1        0.2072
     36 O         139.3881  145.5180  163.4596 O.3     1  UNL1       -0.4602
     37 C         138.8801  144.8351  164.6948 C.3     1  UNL1        0.2072
     38 C         137.8427  143.7575  164.5831 C.3     1  UNL1        0.0512
     39 C         143.5672  142.2923  161.2230 C.3     1  UNL1        0.0491
     40 C         144.5173  143.1432  162.0125 C.3     1  UNL1        0.0750
     41 N         144.8498  142.7795  163.4293 N.3     1  UNL1       -0.2702
     42 C         145.8384  141.6872  163.7109 C.3     1  UNL1        0.0897
     43 C         144.1937  143.5082  164.5643 C.3     1  UNL1        0.0897
@<TRIPOS>BOND
     1    34    35    1
     2    35    33    1
     3    33    27    1
     4    27    28   ar
     5    28    29   ar
     6    29    24    1
     7    24    25    1
     8    24    39    1
     9    39    40    1
    10    40    41    1
    11    41    42    1
    12    41    43    1
    13    24     1    1
    14     1     2    1
    15     2     3   ar
    16     3     4   ar
    17     4     5   ar
    18     5     6   ar
    19     6     7    1
    20     6     8   ar
    21     8     9   ar
    22     9    10   ar
    23    10    11   ar
    24    11    12   ar
    25    12    13    1
    26    13    14    1
    27     1    15    1
    28    15    16   ar
    29    16    17   ar
    30    17    18   ar
    31    18    19   ar
    32    19    22    1
    33    22    23    1
    34    19    20   ar
    35    20    21    1
    36    29    30   ar
    37    30    31   ar
    38    31    36    1
    39    36    37    1
    40    37    38    1
    41    31    32   ar
    42    32    27   ar
    43    12     2   ar
    44    20    15   ar
    45    10     4   ar
    46    25    26    1
@<TRIPOS>MOLECULE
*****
 43 46 0 0 0
SMALL
GASTEIGER

@<TRIPOS>ATOM
      1 C         141.4599  140.3563  163.0251 C.3     1  UNL1        0.0799
      2 C         141.6581  140.1141  164.4922 C.ar    1  UNL1        0.0374
      3 C         140.5418  140.3900  165.4554 C.ar    1  UNL1        0.0023
      4 C         140.7400  140.1479  166.9224 C.ar    1  UNL1        0.0181
      5 C         139.6237  140.4238  167.8856 C.ar    1  UNL1        0.0082
      6 C         139.8220  140.1817  169.3526 C.ar    1  UNL1        0.0347
      7 BR        138.7057  140.4576  170.3159 Br      1  UNL1       -0.0490
      8 C         141.1365  139.6637  169.8564 C.ar    1  UNL1        0.0082
      9 C         142.2527  139.3878  168.8932 C.ar    1  UNL1        0.0197
     10 C         142.0546  139.6299  167.4262 C.ar    1  UNL1        0.0844
     11 N         143.1708  139.3540  166.4629 N.ar    1  UNL1       -0.2119
     12 C         142.9726  139.5961  164.9959 C.ar    1  UNL1        0.2211
     13 O         144.0889  139.3203  164.0327 O.3     1  UNL1       -0.4563
     14 C         145.2927  140.2147  164.0037 C.3     1  UNL1        0.2542
     15 C         142.4166  141.2338  162.2738 C.ar    1  UNL1        0.0148
     16 C         143.1055  140.7142  161.0469 C.ar    1  UNL1       -0.0014
     17 C         144.0623  141.5917  160.2955 C.ar    1  UNL1        0.0029
     18 C         144.3301  142.9889  160.7711 C.ar    1  UNL1        0.0392
     19 C         143.6412  143.5085  161.9981 C.ar    1  UNL1        0.1657
     20 C         142.6844  142.6310  162.7494 C.ar    1  UNL1        0.1702
     21 F         141.9955  143.1506  163.9763 F       1  UNL1       -0.2013
     22 O         143.9090  144.9057  162.4737 O.3     1  UNL1       -0.4692
     23 C         143.8627  145.2208  163.9395 C.3     1  UNL1        0.2526
     24 C         140.3048  139.7208  162.3095 C.3     1  UNL1        0.1162
     25 O         140.9135  138.3675  162.5288 O.3     1  UNL1       -0.3820
     26 H         140.3405  137.6884  162.1398 H       1  UNL1        0.2107
     27 C         138.3999  143.1328  163.0019 C.ar    1  UNL1        0.2271
     28 C         139.0085  141.7795  163.2213 C.ar    1  UNL1        0.0559
     29 C         139.6962  141.0741  162.0901 C.ar    1  UNL1        0.0117
     30 C         139.7752  141.7221  160.7397 C.ar    1  UNL1        0.0559
     31 C         139.1666  143.0754  160.5203 C.ar    1  UNL1        0.2271
     32 N         138.4789  143.7807  161.6515 N.ar    1  UNL1       -0.1767
     33 O         137.7121  143.8381  164.1332 O.3     1  UNL1       -0.4602
     34 C         139.5067  144.0231  166.0027 C.3     1  UNL1        0.0512
     35 C         138.5088  144.6735  165.0911 C.3     1  UNL1        0.2072
     36 O         139.2456  143.7233  159.1697 O.3     1  UNL1       -0.4602
     37 C         140.1060  144.9355  158.9687 C.3     1  UNL1        0.2072
     38 C         141.3376  145.1279  159.8030 C.3     1  UNL1        0.0512
     39 C         139.1498  139.0854  161.5938 C.3     1  UNL1        0.0491
     40 C         139.4011  138.0973  160.4936 C.3     1  UNL1        0.0750
     41 N         140.1035  138.5316  159.2414 N.3     1  UNL1       -0.2702
     42 C         141.5647  138.2439  159.0628 C.3     1  UNL1        0.0897
     43 C         139.3446  139.2537  158.1678 C.3     1  UNL1        0.0897
@<TRIPOS>BOND
     1    34    35    1
     2    35    33    1
     3    33    27    1
     4    27    28   ar
     5    28    29   ar
     6    29    24    1
     7    24    25    1
     8    24    39    1
     9    39    40    1
    10    40    41    1
    11    41    42    1
    12    41    43    1
    13    24     1    1
    14     1     2    1
    15     2     3   ar
    16     3     4   ar
    17     4     5   ar
    18     5     6   ar
    19     6     7    1
    20     6     8   ar
    21     8     9   ar
    22     9    10   ar
    23    10    11   ar
    24    11    12   ar
    25    12    13    1
    26    13    14    1
    27     1    15    1
    28    15    16   ar
    29    16    17   ar
    30    17    18   ar
    31    18    19   ar
    32    19    22    1
    33    22    23    1
    34    19    20   ar
    35    20    21    1
    36    29    30   ar
    37    30    31   ar
    38    31    36    1
    39    36    37    1
    40    37    38    1
    41    31    32   ar
    42    32    27   ar
    43    12     2   ar
    44    20    15   ar
    45    10     4   ar
    46    25    26    1
@<TRIPOS>MOLECULE
*****
 43 46 0 0 0
SMALL
GASTEIGER

@<TRIPOS>ATOM
      1 C         141.6549  141.8704  162.7309 C.3     1  UNL1        0.0799
      2 C         142.0602  142.0013  164.1693 C.ar    1  UNL1        0.0374
      3 C         141.0638  141.7291  165.2570 C.ar    1  UNL1        0.0023
      4 C         141.4691  141.8600  166.6952 C.ar    1  UNL1        0.0181
      5 C         140.4727  141.5878  167.7829 C.ar    1  UNL1        0.0082
      6 C         140.8780  141.7187  169.2212 C.ar    1  UNL1        0.0347
      7 BR        139.8816  141.4465  170.3089 Br      1  UNL1       -0.0490
      8 C         142.2796  142.1218  169.5718 C.ar    1  UNL1        0.0082
      9 C         143.2760  142.3940  168.4841 C.ar    1  UNL1        0.0197
     10 C         142.8707  142.2631  167.0458 C.ar    1  UNL1        0.0844
     11 N         143.8671  142.5353  165.9581 N.ar    1  UNL1       -0.2119
     12 C         143.4618  142.4044  164.5198 C.ar    1  UNL1        0.2211
     13 O         144.4582  142.6766  163.4321 O.3     1  UNL1       -0.4563
     14 C         145.6715  141.8057  163.2913 C.3     1  UNL1        0.2542
     15 C         142.4672  141.0231  161.7970 C.ar    1  UNL1        0.0148
     16 C         142.8136  139.6130  162.1730 C.ar    1  UNL1       -0.0014
     17 C         143.6259  138.7656  161.2391 C.ar    1  UNL1        0.0029
     18 C         144.0918  139.3285  159.9291 C.ar    1  UNL1        0.0392
     19 C         143.7453  140.7387  159.5530 C.ar    1  UNL1        0.1657
     20 C         142.9331  141.5860  160.4870 C.ar    1  UNL1        0.1702
     21 F         142.5866  142.9961  160.1109 F       1  UNL1       -0.2013
     22 O         144.2112  141.3016  158.2430 O.3     1  UNL1       -0.4692
     23 C         145.1203  142.4946  158.2201 C.3     1  UNL1        0.2526
     24 C         140.4373  142.5867  162.2267 C.3     1  UNL1        0.1162
     25 O         141.0485  143.8999  162.6166 O.3     1  UNL1       -0.3820
     26 H         140.4378  144.6198  162.3933 H       1  UNL1        0.2107
     27 C         138.8970  139.6789  160.0081 C.ar    1  UNL1        0.2271
     28 C         139.5081  140.9921  160.3981 C.ar    1  UNL1        0.0559
     29 C         139.8262  141.2736  161.8367 C.ar    1  UNL1        0.0117
     30 C         139.5332  140.2418  162.8853 C.ar    1  UNL1        0.0559
     31 C         138.9221  138.9286  162.4953 C.ar    1  UNL1        0.2271
     32 N         138.6040  138.6472  161.0567 N.ar    1  UNL1       -0.1767
     33 O         138.5788  139.3975  158.5695 O.3     1  UNL1       -0.4602
     34 C         140.9544  138.4042  158.2233 C.3     1  UNL1        0.0512
     35 C         139.6409  138.8573  157.6583 C.3     1  UNL1        0.2072
     36 O         138.6292  137.8968  163.5440 O.3     1  UNL1       -0.4602
     37 C         139.6095  137.6556  164.6533 C.3     1  UNL1        0.2072
     38 C         140.9985  137.1853  164.3377 C.3     1  UNL1        0.0512
     39 C         139.2198  143.3031  161.7224 C.3     1  UNL1        0.0491
     40 C         138.4906  144.2628  162.6153 C.3     1  UNL1        0.0750
     41 N         138.2898  143.9337  164.0649 N.3     1  UNL1       -0.2702
     42 C         137.5431  142.6929  164.4559 C.3     1  UNL1        0.0897
     43 C         138.8357  144.8453  165.1236 C.3     1  UNL1        0.0897
@<TRIPOS>BOND
     1    34    35    1
     2    35    33    1
     3    33    27    1
     4    27    28   ar
     5    28    29   ar
     6    29    24    1
     7    24    25    1
     8    24    39    1
     9    39    40    1
    10    40    41    1
    11    41    42    1
    12    41    43    1
    13    24     1    1
    14     1     2    1
    15     2     3   ar
    16     3     4   ar
    17     4     5   ar
    18     5     6   ar
    19     6     7    1
    20     6     8   ar
    21     8     9   ar
    22     9    10   ar
    23    10    11   ar
    24    11    12   ar
    25    12    13    1
    26    13    14    1
    27     1    15    1
    28    15    16   ar
    29    16    17   ar
    30    17    18   ar
    31    18    19   ar
    32    19    22    1
    33    22    23    1
    34    19    20   ar
    35    20    21    1
    36    29    30   ar
    37    30    31   ar
    38    31    36    1
    39    36    37    1
    40    37    38    1
    41    31    32   ar
    42    32    27   ar
    43    12     2   ar
    44    20    15   ar
    45    10     4   ar
    46    25    26    1
@<TRIPOS>MOLECULE
*****
 43 46 0 0 0
SMALL
GASTEIGER

@<TRIPOS>ATOM
      1 C         141.6870  141.7781  162.8253 C.3     1  UNL1        0.0799
      2 C         142.0791  141.9368  164.2644 C.ar    1  UNL1        0.0374
      3 C         141.0761  141.6743  165.3484 C.ar    1  UNL1        0.0023
      4 C         141.4682  141.8329  166.7875 C.ar    1  UNL1        0.0181
      5 C         140.4651  141.5704  167.8714 C.ar    1  UNL1        0.0082
      6 C         140.8572  141.7290  169.3106 C.ar    1  UNL1        0.0347
      7 BR        139.8542  141.4665  170.3946 Br      1  UNL1       -0.0490
      8 C         142.2524  142.1502  169.6658 C.ar    1  UNL1        0.0082
      9 C         143.2554  142.4127  168.5818 C.ar    1  UNL1        0.0197
     10 C         142.8634  142.2541  167.1427 C.ar    1  UNL1        0.0844
     11 N         143.8664  142.5166  166.0587 N.ar    1  UNL1       -0.2119
     12 C         143.4743  142.3579  164.6196 C.ar    1  UNL1        0.2211
     13 O         144.4773  142.6204  163.5356 O.3     1  UNL1       -0.4563
     14 C         145.6885  141.7449  163.4065 C.3     1  UNL1        0.2542
     15 C         142.4775  140.8727  161.9279 C.ar    1  UNL1        0.0148
     16 C         142.7274  139.4495  162.3304 C.ar    1  UNL1       -0.0014
     17 C         143.5179  138.5440  161.4331 C.ar    1  UNL1        0.0029
     18 C         144.0587  139.0618  160.1333 C.ar    1  UNL1        0.0392
     19 C         143.8088  140.4851  159.7308 C.ar    1  UNL1        0.1657
     20 C         143.0183  141.3905  160.6281 C.ar    1  UNL1        0.1702
     21 F         142.7684  142.8137  160.2256 F       1  UNL1       -0.2013
     22 O         144.3495  141.0029  158.4310 O.3     1  UNL1       -0.4692
     23 C         143.5394  140.8700  157.1755 C.3     1  UNL1        0.2526
     24 C         140.5043  142.5249  162.2835 C.3     1  UNL1        0.1162
     25 O         141.1645  143.8252  162.6346 O.3     1  UNL1       -0.3820
     26 H         140.5858  144.5608  162.3800 H       1  UNL1        0.2107
     27 C         138.8142  138.9544  162.6641 C.ar    1  UNL1        0.2271
     28 C         139.4744  140.2547  163.0152 C.ar    1  UNL1        0.0559
     29 C         139.8441  141.2246  161.9324 C.ar    1  UNL1        0.0117
     30 C         139.5535  140.8942  160.4984 C.ar    1  UNL1        0.0559
     31 C         138.8933  139.5939  160.1473 C.ar    1  UNL1        0.2271
     32 N         138.5236  138.6240  161.2301 N.ar    1  UNL1       -0.1767
     33 O         138.4445  137.9845  163.7471 O.3     1  UNL1       -0.4602
     34 C         138.1413  138.8475  166.1788 C.3     1  UNL1        0.0512
     35 C         138.9803  138.1709  165.1357 C.3     1  UNL1        0.2072
     36 O         138.6027  139.2634  158.7132 O.3     1  UNL1       -0.4602
     37 C         139.7261  139.1628  157.7243 C.3     1  UNL1        0.2072
     38 C         140.9299  138.3253  158.0395 C.3     1  UNL1        0.0512
     39 C         139.3216  143.2717  161.7417 C.3     1  UNL1        0.0491
     40 C         138.6002  144.2628  162.6062 C.3     1  UNL1        0.0750
     41 N         138.3632  143.9606  164.0562 N.3     1  UNL1       -0.2702
     42 C         137.5565  142.7588  164.4498 C.3     1  UNL1        0.0897
     43 C         138.9329  144.8602  165.1126 C.3     1  UNL1        0.0897
@<TRIPOS>BOND
     1    34    35    1
     2    35    33    1
     3    33    27    1
     4    27    28   ar
     5    28    29   ar
     6    29    24    1
     7    24    25    1
     8    24    39    1
     9    39    40    1
    10    40    41    1
    11    41    42    1
    12    41    43    1
    13    24     1    1
    14     1     2    1
    15     2     3   ar
    16     3     4   ar
    17     4     5   ar
    18     5     6   ar
    19     6     7    1
    20     6     8   ar
    21     8     9   ar
    22     9    10   ar
    23    10    11   ar
    24    11    12   ar
    25    12    13    1
    26    13    14    1
    27     1    15    1
    28    15    16   ar
    29    16    17   ar
    30    17    18   ar
    31    18    19   ar
    32    19    22    1
    33    22    23    1
    34    19    20   ar
    35    20    21    1
    36    29    30   ar
    37    30    31   ar
    38    31    36    1
    39    36    37    1
    40    37    38    1
    41    31    32   ar
    42    32    27   ar
    43    12     2   ar
    44    20    15   ar
    45    10     4   ar
    46    25    26    1
@<TRIPOS>MOLECULE
*****
 43 46 0 0 0
SMALL
GASTEIGER

@<TRIPOS>ATOM
      1 C         141.3458  142.3832  162.4749 C.3     1  UNL1        0.0799
      2 C         141.7947  142.2997  163.9038 C.ar    1  UNL1        0.0374
      3 C         140.8886  141.7056  164.9411 C.ar    1  UNL1        0.0023
      4 C         141.3374  141.6221  166.3699 C.ar    1  UNL1        0.0181
      5 C         140.4312  141.0280  167.4072 C.ar    1  UNL1        0.0082
      6 C         140.8801  140.9445  168.8361 C.ar    1  UNL1        0.0347
      7 BR        139.9739  140.3504  169.8733 Br      1  UNL1       -0.0490
      8 C         142.2351  141.4549  169.2276 C.ar    1  UNL1        0.0082
      9 C         143.1413  142.0490  168.1903 C.ar    1  UNL1        0.0197
     10 C         142.6925  142.1326  166.7615 C.ar    1  UNL1        0.0844
     11 N         143.5986  142.7266  165.7242 N.ar    1  UNL1       -0.2119
     12 C         143.1497  142.8102  164.2953 C.ar    1  UNL1        0.2211
     13 O         144.0559  143.4042  163.2581 O.3     1  UNL1       -0.4563
     14 C         144.0184  144.8787  162.9852 C.3     1  UNL1        0.2542
     15 C         142.2068  141.8188  161.3841 C.ar    1  UNL1        0.0148
     16 C         142.5721  142.6671  160.2022 C.ar    1  UNL1       -0.0014
     17 C         143.4332  142.1027  159.1113 C.ar    1  UNL1        0.0029
     18 C         143.9289  140.6899  159.2023 C.ar    1  UNL1        0.0392
     19 C         143.5635  139.8415  160.3842 C.ar    1  UNL1        0.1657
     20 C         142.7025  140.4060  161.4751 C.ar    1  UNL1        0.1702
     21 F         142.3372  139.5576  162.6569 F       1  UNL1       -0.2013
     22 O         144.0592  138.4287  160.4752 O.3     1  UNL1       -0.4692
     23 C         143.1605  137.2921  160.0872 C.3     1  UNL1        0.2526
     24 C         140.0359  143.0313  162.1370 C.3     1  UNL1        0.1162
     25 O         140.5809  144.3595  162.5717 O.3     1  UNL1       -0.3820
     26 H         139.8997  145.0409  162.4593 H       1  UNL1        0.2107
     27 C         138.7422  139.2820  162.2747 C.ar    1  UNL1        0.2271
     28 C         139.2871  140.6102  162.7093 C.ar    1  UNL1        0.0559
     29 C         139.4910  141.7031  161.7024 C.ar    1  UNL1        0.0117
     30 C         139.1499  141.4678  160.2608 C.ar    1  UNL1        0.0559
     31 C         138.6049  140.1396  159.8261 C.ar    1  UNL1        0.2271
     32 N         138.4011  139.0467  160.8331 N.ar    1  UNL1       -0.1767
     33 O         138.5383  138.1890  163.2817 O.3     1  UNL1       -0.4602
     34 C         140.6276  137.6733  164.7373 C.3     1  UNL1        0.0512
     35 C         139.2472  138.2445  164.6025 C.3     1  UNL1        0.2072
     36 O         138.2638  139.9043  158.3844 O.3     1  UNL1       -0.4602
     37 C         137.9543  141.0663  157.4877 C.3     1  UNL1        0.2072
     38 C         136.8582  140.9568  156.4696 C.3     1  UNL1        0.0512
     39 C         138.7260  143.6793  161.7991 C.3     1  UNL1        0.0491
     40 C         137.9662  144.4290  162.8529 C.3     1  UNL1        0.0750
     41 N         138.0493  143.9977  164.2872 N.3     1  UNL1       -0.2702
     42 C         138.7102  144.8849  165.3001 C.3     1  UNL1        0.0897
     43 C         137.4716  142.6791  164.7086 C.3     1  UNL1        0.0897
@<TRIPOS>BOND
     1    34    35    1
     2    35    33    1
     3    33    27    1
     4    27    28   ar
     5    28    29   ar
     6    29    24    1
     7    24    25    1
     8    24    39    1
     9    39    40    1
    10    40    41    1
    11    41    42    1
    12    41    43    1
    13    24     1    1
    14     1     2    1
    15     2     3   ar
    16     3     4   ar
    17     4     5   ar
    18     5     6   ar
    19     6     7    1
    20     6     8   ar
    21     8     9   ar
    22     9    10   ar
    23    10    11   ar
    24    11    12   ar
    25    12    13    1
    26    13    14    1
    27     1    15    1
    28    15    16   ar
    29    16    17   ar
    30    17    18   ar
    31    18    19   ar
    32    19    22    1
    33    22    23    1
    34    19    20   ar
    35    20    21    1
    36    29    30   ar
    37    30    31   ar
    38    31    36    1
    39    36    37    1
    40    37    38    1
    41    31    32   ar
    42    32    27   ar
    43    12     2   ar
    44    20    15   ar
    45    10     4   ar
    46    25    26    1
