@<TRIPOS>MOLECULE
*****
 44 48 0 0 0
SMALL
GASTEIGER

@<TRIPOS>ATOM
      1 C         143.1977  142.8458  165.8456 C.ar    1  UNL1        0.2006
      2 N         142.0603  141.9401  165.4773 N.ar    1  UNL1       -0.2000
      3 C         141.4674  141.0239  166.5065 C.ar    1  UNL1        0.1379
      4 C         142.0121  141.0136  167.9041 C.ar    1  UNL1        0.0673
      5 C         141.6341  140.2250  169.1228 C.ar    1  UNL1        0.0265
      6 C         142.5381  140.6433  170.2443 C.ar    1  UNL1        0.1007
      7 N         143.4748  141.6905  169.7187 N.ar    1  UNL1       -0.2268
      8 C         143.1497  141.9193  168.2724 C.ar    1  UNL1        0.1452
      9 N         143.7425  142.8354  167.2431 N.ar    1  UNL1       -0.3118
     10 H         144.4891  143.4299  167.4849 H       1  UNL1        0.1700
     11 N         143.7906  143.7619  164.8164 N.pl3   1  UNL1       -0.2816
     12 H         144.6247  144.2472  165.0113 H       1  UNL1        0.1551
     13 C         140.0680  145.9430  161.9206 C.3     1  UNL1        0.0307
     14 C         141.2512  145.0292  162.0422 C.ar    1  UNL1       -0.0244
     15 C         141.9293  144.8525  163.3685 C.ar    1  UNL1        0.0132
     16 C         143.1126  143.9386  163.4901 C.ar    1  UNL1        0.0845
     17 C         143.6178  143.2015  162.2854 C.ar    1  UNL1        0.1513
     18 C         142.9397  143.3782  160.9590 C.ar    1  UNL1        0.0336
     19 C         141.7565  144.2920  160.8374 C.ar    1  UNL1       -0.0233
     20 C         141.0785  144.4687  159.5112 C.3     1  UNL1        0.0249
     21 C         140.0018  143.5146  159.0863 C.3     1  UNL1        0.0217
     22 C         139.3237  143.6913  157.7600 C.3     1  UNL1        0.0725
     23 N         139.7224  144.8221  156.8587 N.3     1  UNL1       -0.2715
     24 C         139.0443  144.9989  155.5323 C.3     1  UNL1        0.0896
     25 C         140.7991  145.7761  157.2835 C.3     1  UNL1        0.0725
     26 C         141.4771  145.5994  158.6098 C.3     1  UNL1        0.0217
     27 O         144.8011  142.2876  162.4069 O.3     1  UNL1       -0.4779
     28 C         144.6054  140.8573  162.8142 C.3     1  UNL1        0.1662
     29 C         143.7970  139.9353  161.9503 C.3     1  UNL1        0.0472
     30 C         145.2181  140.3490  164.0855 C.3     1  UNL1        0.0472
     31 N         140.3298  140.1182  166.1381 N.pl3   1  UNL1       -0.2968
     32 H         139.5316  140.0718  166.7126 H       1  UNL1        0.1536
     33 C         140.4084  139.2833  164.8945 C.ar    1  UNL1        0.0667
     34 C         141.0543  137.9303  164.9390 C.ar    1  UNL1        0.0159
     35 C         141.1329  137.0954  163.6953 C.ar    1  UNL1        0.0014
     36 C         140.5654  137.6135  162.4071 C.ar    1  UNL1        0.0014
     37 C         139.9194  138.9666  162.3626 C.ar    1  UNL1        0.0196
     38 C         139.8409  139.8014  163.6063 C.ar    1  UNL1        0.1189
     39 S         139.1949  141.1545  163.5618 S.O2    1  UNL1        0.0082
     40 O         140.3142  141.6605  162.7010 O.2     1  UNL1       -0.1686
     41 O         138.0756  140.6484  164.4226 O.2     1  UNL1       -0.1686
     42 C         138.5489  142.5075  163.5172 C.3     1  UNL1        0.1340
     43 C         137.8658  142.9717  162.2651 C.3     1  UNL1        0.0257
     44 C         138.5860  143.3964  164.7250 C.3     1  UNL1        0.0257
@<TRIPOS>BOND
     1    13    14    1
     2    14    15   ar
     3    15    16   ar
     4    16    11    1
     5    11     1    1
     6     1     2   ar
     7     2     3   ar
     8     3    31    1
     9    31    33    1
    10    33    34   ar
    11    34    35   ar
    12    35    36   ar
    13    36    37   ar
    14    37    38   ar
    15    38    39    1
    16    39    40    2
    17    39    41    2
    18    39    42    1
    19    42    43    1
    20    42    44    1
    21     3     4   ar
    22     4     5   ar
    23     5     6   ar
    24     6     7   ar
    25     7     8   ar
    26     8     9   ar
    27    16    17   ar
    28    17    27    1
    29    27    28    1
    30    28    29    1
    31    28    30    1
    32    17    18   ar
    33    18    19   ar
    34    19    20    1
    35    20    21    1
    36    21    22    1
    37    22    23    1
    38    23    24    1
    39    23    25    1
    40    25    26    1
    41    19    14   ar
    42    26    20    1
    43     9     1   ar
    44    38    33   ar
    45     8     4    1
    46    11    12    1
    47    31    32    1
    48     9    10    1
@<TRIPOS>MOLECULE
*****
 44 48 0 0 0
SMALL
GASTEIGER

@<TRIPOS>ATOM
      1 C         141.9302  139.6886  160.6354 C.ar    1  UNL1        0.2006
      2 N         142.1858  141.1501  160.8556 N.ar    1  UNL1       -0.2000
      3 C         143.0229  141.9208  159.8780 C.ar    1  UNL1        0.1379
      4 C         143.6043  141.2297  158.6804 C.ar    1  UNL1        0.0673
      5 C         144.4622  141.7251  157.5540 C.ar    1  UNL1        0.0265
      6 C         144.7368  140.5696  156.6378 C.ar    1  UNL1        0.1007
      7 N         144.0486  139.3602  157.1978 N.ar    1  UNL1       -0.2268
      8 C         143.3487  139.7681  158.4603 C.ar    1  UNL1        0.1452
      9 N         142.5117  138.9976  159.4378 N.ar    1  UNL1       -0.3118
     10 H         142.3439  138.0383  159.2933 H       1  UNL1        0.1700
     11 N         141.0931  138.9180  161.6130 N.pl3   1  UNL1       -0.2816
     12 H         140.6823  138.0647  161.3439 H       1  UNL1        0.1551
     13 C         142.7636  139.5441  166.4933 C.3     1  UNL1        0.0307
     14 C         141.7172  139.7606  165.4406 C.ar    1  UNL1       -0.0244
     15 C         141.9284  139.2311  164.0532 C.ar    1  UNL1        0.0132
     16 C         140.8820  139.4475  163.0004 C.ar    1  UNL1        0.0845
     17 C         139.6245  140.1936  163.3351 C.ar    1  UNL1        0.1513
     18 C         139.4133  140.7231  164.7226 C.ar    1  UNL1        0.0336
     19 C         140.4596  140.5067  165.7753 C.ar    1  UNL1       -0.0233
     20 C         140.2485  141.0362  167.1627 C.3     1  UNL1        0.0249
     21 C         140.6698  142.4348  167.5039 C.3     1  UNL1        0.0217
     22 C         140.4587  142.9644  168.8913 C.3     1  UNL1        0.0725
     23 N         139.8263  142.0953  169.9376 N.3     1  UNL1       -0.2715
     24 C         139.6151  142.6248  171.3252 C.3     1  UNL1        0.0896
     25 C         139.4050  140.6967  169.5965 C.3     1  UNL1        0.0725
     26 C         139.6161  140.1671  168.2090 C.3     1  UNL1        0.0217
     27 O         138.5781  140.4101  162.2824 O.3     1  UNL1       -0.4779
     28 C         138.4488  141.7484  161.6175 C.3     1  UNL1        0.1662
     29 C         137.9227  142.9218  162.3896 C.3     1  UNL1        0.0472
     30 C         138.8457  141.9132  160.1804 C.3     1  UNL1        0.0472
     31 N         143.2784  143.3824  160.0982 N.pl3   1  UNL1       -0.2968
     32 H         144.1330  143.7808  159.8150 H       1  UNL1        0.1536
     33 C         142.2320  144.2369  160.7498 C.ar    1  UNL1        0.0667
     34 C         141.1742  144.8951  159.9145 C.ar    1  UNL1        0.0159
     35 C         140.1277  145.7496  160.5662 C.ar    1  UNL1        0.0014
     36 C         140.1391  145.9459  162.0533 C.ar    1  UNL1        0.0014
     37 C         141.1969  145.2877  162.8886 C.ar    1  UNL1        0.0196
     38 C         142.2433  144.4332  162.2369 C.ar    1  UNL1        0.1189
     39 S         143.3012  143.7750  163.0722 S.O2    1  UNL1        0.0082
     40 O         144.3343  144.6903  162.4851 O.2     1  UNL1       -0.1686
     41 O         142.2680  142.8597  163.6593 O.2     1  UNL1       -0.1686
     42 C         144.3590  143.1168  163.9076 C.3     1  UNL1        0.1340
     43 C         145.2941  142.1221  163.2864 C.3     1  UNL1        0.0257
     44 C         144.4816  143.4534  165.3642 C.3     1  UNL1        0.0257
@<TRIPOS>BOND
     1    13    14    1
     2    14    15   ar
     3    15    16   ar
     4    16    11    1
     5    11     1    1
     6     1     2   ar
     7     2     3   ar
     8     3    31    1
     9    31    33    1
    10    33    34   ar
    11    34    35   ar
    12    35    36   ar
    13    36    37   ar
    14    37    38   ar
    15    38    39    1
    16    39    40    2
    17    39    41    2
    18    39    42    1
    19    42    43    1
    20    42    44    1
    21     3     4   ar
    22     4     5   ar
    23     5     6   ar
    24     6     7   ar
    25     7     8   ar
    26     8     9   ar
    27    16    17   ar
    28    17    27    1
    29    27    28    1
    30    28    29    1
    31    28    30    1
    32    17    18   ar
    33    18    19   ar
    34    19    20    1
    35    20    21    1
    36    21    22    1
    37    22    23    1
    38    23    24    1
    39    23    25    1
    40    25    26    1
    41    19    14   ar
    42    26    20    1
    43     9     1   ar
    44    38    33   ar
    45     8     4    1
    46    11    12    1
    47    31    32    1
    48     9    10    1
@<TRIPOS>MOLECULE
*****
 44 48 0 0 0
SMALL
GASTEIGER

@<TRIPOS>ATOM
      1 C         139.1884  140.0693  166.2172 C.ar    1  UNL1        0.2006
      2 N         140.5758  140.1898  165.6600 N.ar    1  UNL1       -0.2000
      3 C         141.7591  140.1631  166.5815 C.ar    1  UNL1        0.1379
      4 C         141.5549  140.0157  168.0602 C.ar    1  UNL1        0.0673
      5 C         142.5213  139.9574  169.2059 C.ar    1  UNL1        0.0265
      6 C         141.7311  139.8007  170.4712 C.ar    1  UNL1        0.1007
      7 N         140.2764  139.7623  170.1075 N.ar    1  UNL1       -0.2268
      8 C         140.1675  139.8951  168.6174 C.ar    1  UNL1        0.1452
      9 N         138.9842  139.9219  167.6959 N.ar    1  UNL1       -0.3118
     10 H         138.0736  139.8428  168.0616 H       1  UNL1        0.1700
     11 N         138.0051  140.0960  165.2957 N.pl3   1  UNL1       -0.2816
     12 H         137.0972  139.9754  165.6568 H       1  UNL1        0.1551
     13 C         139.0729  138.1895  160.5813 C.3     1  UNL1        0.0307
     14 C         138.7391  139.3533  161.4669 C.ar    1  UNL1       -0.0244
     15 C         138.5390  139.1428  162.9385 C.ar    1  UNL1        0.0132
     16 C         138.2052  140.3065  163.8241 C.ar    1  UNL1        0.0845
     17 C         138.0715  141.6808  163.2381 C.ar    1  UNL1        0.1513
     18 C         138.2716  141.8913  161.7664 C.ar    1  UNL1        0.0336
     19 C         138.6054  140.7277  160.8808 C.ar    1  UNL1       -0.0233
     20 C         138.8055  140.9381  159.4092 C.3     1  UNL1        0.0249
     21 C         140.1487  141.3540  158.8869 C.3     1  UNL1        0.0217
     22 C         140.3488  141.5645  157.4153 C.3     1  UNL1        0.0725
     23 N         139.2056  141.3591  156.4660 N.3     1  UNL1       -0.2715
     24 C         139.4056  141.5696  154.9943 C.3     1  UNL1        0.0896
     25 C         137.8624  140.9433  156.9884 C.3     1  UNL1        0.0725
     26 C         137.6623  140.7328  158.4600 C.3     1  UNL1        0.0217
     27 O         137.7376  142.8446  164.1236 O.3     1  UNL1       -0.4779
     28 C         138.8339  143.7124  164.6669 C.3     1  UNL1        0.1662
     29 C         140.2671  143.3840  164.3700 C.3     1  UNL1        0.0472
     30 C         138.4970  144.9085  165.5069 C.3     1  UNL1        0.0472
     31 N         143.1466  140.2836  166.0242 N.pl3   1  UNL1       -0.2968
     32 H         143.8314  139.6167  166.2599 H       1  UNL1        0.1536
     33 C         143.4906  141.4203  165.1079 C.ar    1  UNL1        0.0667
     34 C         143.7772  142.7795  165.6738 C.ar    1  UNL1        0.0159
     35 C         144.1212  143.9161  164.7574 C.ar    1  UNL1        0.0014
     36 C         144.1786  143.6935  163.2751 C.ar    1  UNL1        0.0014
     37 C         143.8920  142.3342  162.7093 C.ar    1  UNL1        0.0196
     38 C         143.5480  141.1976  163.6256 C.ar    1  UNL1        0.1189
     39 S         143.2614  139.8383  163.0597 S.O2    1  UNL1        0.0082
     40 O         141.9567  140.3400  162.5156 O.2     1  UNL1       -0.1686
     41 O         144.5661  139.3367  163.6039 O.2     1  UNL1       -0.1686
     42 C         142.9747  138.4791  162.4939 C.3     1  UNL1        0.1340
     43 C         141.8509  137.6565  163.0508 C.3     1  UNL1        0.0257
     44 C         143.8121  137.9424  161.3709 C.3     1  UNL1        0.0257
@<TRIPOS>BOND
     1    13    14    1
     2    14    15   ar
     3    15    16   ar
     4    16    11    1
     5    11     1    1
     6     1     2   ar
     7     2     3   ar
     8     3    31    1
     9    31    33    1
    10    33    34   ar
    11    34    35   ar
    12    35    36   ar
    13    36    37   ar
    14    37    38   ar
    15    38    39    1
    16    39    40    2
    17    39    41    2
    18    39    42    1
    19    42    43    1
    20    42    44    1
    21     3     4   ar
    22     4     5   ar
    23     5     6   ar
    24     6     7   ar
    25     7     8   ar
    26     8     9   ar
    27    16    17   ar
    28    17    27    1
    29    27    28    1
    30    28    29    1
    31    28    30    1
    32    17    18   ar
    33    18    19   ar
    34    19    20    1
    35    20    21    1
    36    21    22    1
    37    22    23    1
    38    23    24    1
    39    23    25    1
    40    25    26    1
    41    19    14   ar
    42    26    20    1
    43     9     1   ar
    44    38    33   ar
    45     8     4    1
    46    11    12    1
    47    31    32    1
    48     9    10    1
@<TRIPOS>MOLECULE
*****
 44 48 0 0 0
SMALL
GASTEIGER

@<TRIPOS>ATOM
      1 C         142.0479  139.0027  165.1390 C.ar    1  UNL1        0.2006
      2 N         141.8568  140.4048  164.6419 N.ar    1  UNL1       -0.2000
      3 C         142.0429  141.5638  165.5759 C.ar    1  UNL1        0.1379
      4 C         142.4203  141.3203  167.0071 C.ar    1  UNL1        0.0673
      5 C         142.6706  142.2563  168.1522 C.ar    1  UNL1        0.0265
      6 C         143.0165  141.4326  169.3571 C.ar    1  UNL1        0.1007
      7 N         142.9799  139.9874  168.9566 N.ar    1  UNL1       -0.2268
      8 C         142.6114  139.9181  167.5043 C.ar    1  UNL1        0.1452
      9 N         142.4252  138.7593  166.5702 N.ar    1  UNL1       -0.3118
     10 H         142.5507  137.8389  166.8965 H       1  UNL1        0.1700
     11 N         141.8617  137.8438  164.2050 N.pl3   1  UNL1       -0.2816
     12 H         142.0891  136.9324  164.4999 H       1  UNL1        0.1551
     13 C         142.6882  138.8359  159.1718 C.3     1  UNL1        0.0307
     14 C         141.7423  138.5696  160.3051 C.ar    1  UNL1       -0.0244
     15 C         142.2750  138.3398  161.6883 C.ar    1  UNL1        0.0132
     16 C         141.3291  138.0735  162.8217 C.ar    1  UNL1        0.0845
     17 C         139.8505  138.0370  162.5717 C.ar    1  UNL1        0.1513
     18 C         139.3178  138.2668  161.1884 C.ar    1  UNL1        0.0336
     19 C         140.2637  138.5330  160.0551 C.ar    1  UNL1       -0.0233
     20 C         139.7310  138.7628  158.6718 C.3     1  UNL1        0.0249
     21 C         139.0090  140.0372  158.3482 C.3     1  UNL1        0.0217
     22 C         138.4764  140.2669  156.9650 C.3     1  UNL1        0.0725
     23 N         138.6657  139.2223  155.9053 N.3     1  UNL1       -0.2715
     24 C         138.1331  139.4520  154.5219 C.3     1  UNL1        0.0896
     25 C         139.3877  137.9479  156.2289 C.3     1  UNL1        0.0725
     26 C         139.9204  137.7182  157.6122 C.3     1  UNL1        0.0217
     27 O         138.9046  137.7707  163.7050 O.3     1  UNL1       -0.4779
     28 C         138.5184  138.8813  164.6363 C.3     1  UNL1        0.1662
     29 C         138.2339  140.2504  164.0936 C.3     1  UNL1        0.0472
     30 C         138.4167  138.6228  166.1104 C.3     1  UNL1        0.0472
     31 N         141.8518  142.9660  165.0787 N.pl3   1  UNL1       -0.2968
     32 H         142.5992  143.6060  165.1110 H       1  UNL1        0.1536
     33 C         140.5218  143.3932  164.5321 C.ar    1  UNL1        0.0667
     34 C         139.4495  143.8783  165.4620 C.ar    1  UNL1        0.0159
     35 C         138.1196  144.3055  164.9154 C.ar    1  UNL1        0.0014
     36 C         137.8620  144.2475  163.4388 C.ar    1  UNL1        0.0014
     37 C         138.9343  143.7623  162.5089 C.ar    1  UNL1        0.0196
     38 C         140.2642  143.3352  163.0555 C.ar    1  UNL1        0.1189
     39 S         141.3365  142.8500  162.1256 S.O2    1  UNL1        0.0082
     40 O         140.5142  141.6356  161.8110 O.2     1  UNL1       -0.1686
     41 O         142.1588  144.0644  162.4403 O.2     1  UNL1       -0.1686
     42 C         142.4088  142.3648  161.1957 C.3     1  UNL1        0.1340
     43 C         143.6973  141.8326  161.7492 C.3     1  UNL1        0.0257
     44 C         142.1925  142.4120  159.7120 C.3     1  UNL1        0.0257
@<TRIPOS>BOND
     1    13    14    1
     2    14    15   ar
     3    15    16   ar
     4    16    11    1
     5    11     1    1
     6     1     2   ar
     7     2     3   ar
     8     3    31    1
     9    31    33    1
    10    33    34   ar
    11    34    35   ar
    12    35    36   ar
    13    36    37   ar
    14    37    38   ar
    15    38    39    1
    16    39    40    2
    17    39    41    2
    18    39    42    1
    19    42    43    1
    20    42    44    1
    21     3     4   ar
    22     4     5   ar
    23     5     6   ar
    24     6     7   ar
    25     7     8   ar
    26     8     9   ar
    27    16    17   ar
    28    17    27    1
    29    27    28    1
    30    28    29    1
    31    28    30    1
    32    17    18   ar
    33    18    19   ar
    34    19    20    1
    35    20    21    1
    36    21    22    1
    37    22    23    1
    38    23    24    1
    39    23    25    1
    40    25    26    1
    41    19    14   ar
    42    26    20    1
    43     9     1   ar
    44    38    33   ar
    45     8     4    1
    46    11    12    1
    47    31    32    1
    48     9    10    1
@<TRIPOS>MOLECULE
*****
 44 48 0 0 0
SMALL
GASTEIGER

@<TRIPOS>ATOM
      1 C         141.7860  144.7060  160.5564 C.ar    1  UNL1        0.2006
      2 N         141.2523  143.3107  160.4217 N.ar    1  UNL1       -0.2000
      3 C         140.8361  142.7934  159.0766 C.ar    1  UNL1        0.1379
      4 C         140.9536  143.6716  157.8662 C.ar    1  UNL1        0.0673
      5 C         140.6247  143.4386  156.4214 C.ar    1  UNL1        0.0265
      6 C         140.9552  144.6899  155.6632 C.ar    1  UNL1        0.1007
      7 N         141.4883  145.6963  156.6394 N.ar    1  UNL1       -0.2268
      8 C         141.4874  145.0670  158.0009 C.ar    1  UNL1        0.1452
      9 N         141.9035  145.5841  159.3460 N.ar    1  UNL1       -0.3118
     10 H         142.2539  146.5000  159.4345 H       1  UNL1        0.1700
     11 N         142.2022  145.2233  161.9015 N.pl3   1  UNL1       -0.2816
     12 H         142.7372  146.0470  161.9682 H       1  UNL1        0.1551
     13 C         138.6209  144.0283  165.4718 C.3     1  UNL1        0.0307
     14 C         140.0127  143.8878  164.9302 C.ar    1  UNL1       -0.0244
     15 C         140.4116  144.6257  163.6867 C.ar    1  UNL1        0.0132
     16 C         141.8033  144.4853  163.1450 C.ar    1  UNL1        0.0845
     17 C         142.7961  143.6069  163.8469 C.ar    1  UNL1        0.1513
     18 C         142.3972  142.8689  165.0905 C.ar    1  UNL1        0.0336
     19 C         141.0056  143.0094  165.6321 C.ar    1  UNL1       -0.0233
     20 C         140.6067  142.2714  166.8756 C.3     1  UNL1        0.0249
     21 C         140.6845  142.9528  168.2096 C.3     1  UNL1        0.0217
     22 C         140.2856  142.2149  169.4531 C.3     1  UNL1        0.0725
     23 N         139.8089  140.7956  169.3626 N.3     1  UNL1       -0.2715
     24 C         139.4099  140.0575  170.6061 C.3     1  UNL1        0.0896
     25 C         139.7310  140.1142  168.0285 C.3     1  UNL1        0.0725
     26 C         140.1299  140.8521  166.7850 C.3     1  UNL1        0.0217
     27 O         144.1879  143.4664  163.3053 O.3     1  UNL1       -0.4779
     28 C         144.7083  142.1145  162.9160 C.3     1  UNL1        0.1662
     29 C         144.2001  141.4444  161.6739 C.3     1  UNL1        0.0472
     30 C         145.7369  141.4328  163.7687 C.3     1  UNL1        0.0472
     31 N         140.3024  141.3981  158.9419 N.pl3   1  UNL1       -0.2968
     32 H         139.4699  141.2355  158.4421 H       1  UNL1        0.1536
     33 C         141.0370  140.2503  159.5689 C.ar    1  UNL1        0.0667
     34 C         142.1305  139.5566  158.8120 C.ar    1  UNL1        0.0159
     35 C         142.8650  138.4089  159.4391 C.ar    1  UNL1        0.0014
     36 C         142.5060  137.9549  160.8229 C.ar    1  UNL1        0.0014
     37 C         141.4125  138.6487  161.5798 C.ar    1  UNL1        0.0196
     38 C         140.6780  139.7964  160.9527 C.ar    1  UNL1        0.1189
     39 S         139.5844  140.4902  161.7096 S.O2    1  UNL1        0.0082
     40 O         138.5842  140.0202  160.6953 O.2     1  UNL1       -0.1686
     41 O         140.5846  140.9602  162.7238 O.2     1  UNL1       -0.1686
     42 C         138.4909  141.1840  162.4664 C.3     1  UNL1        0.1340
     43 C         137.9741  140.5955  163.7457 C.3     1  UNL1        0.0257
     44 C         137.9141  142.4663  161.9439 C.3     1  UNL1        0.0257
@<TRIPOS>BOND
     1    13    14    1
     2    14    15   ar
     3    15    16   ar
     4    16    11    1
     5    11     1    1
     6     1     2   ar
     7     2     3   ar
     8     3    31    1
     9    31    33    1
    10    33    34   ar
    11    34    35   ar
    12    35    36   ar
    13    36    37   ar
    14    37    38   ar
    15    38    39    1
    16    39    40    2
    17    39    41    2
    18    39    42    1
    19    42    43    1
    20    42    44    1
    21     3     4   ar
    22     4     5   ar
    23     5     6   ar
    24     6     7   ar
    25     7     8   ar
    26     8     9   ar
    27    16    17   ar
    28    17    27    1
    29    27    28    1
    30    28    29    1
    31    28    30    1
    32    17    18   ar
    33    18    19   ar
    34    19    20    1
    35    20    21    1
    36    21    22    1
    37    22    23    1
    38    23    24    1
    39    23    25    1
    40    25    26    1
    41    19    14   ar
    42    26    20    1
    43     9     1   ar
    44    38    33   ar
    45     8     4    1
    46    11    12    1
    47    31    32    1
    48     9    10    1
@<TRIPOS>MOLECULE
*****
 44 48 0 0 0
SMALL
GASTEIGER

@<TRIPOS>ATOM
      1 C         139.6975  139.3442  165.0165 C.ar    1  UNL1        0.2006
      2 N         140.3733  140.6533  164.7353 N.ar    1  UNL1       -0.2000
      3 C         140.6305  141.6201  165.8531 C.ar    1  UNL1        0.1379
      4 C         140.2117  141.2775  167.2521 C.ar    1  UNL1        0.0673
      5 C         140.3318  142.0248  168.5471 C.ar    1  UNL1        0.0265
      6 C         139.7301  141.1774  169.6287 C.ar    1  UNL1        0.1007
      7 N         139.2381  139.9064  169.0022 N.ar    1  UNL1       -0.2268
      8 C         139.5358  139.9683  167.5333 C.ar    1  UNL1        0.1452
      9 N         139.2787  139.0016  166.4155 N.ar    1  UNL1       -0.3118
     10 H         138.8351  138.1423  166.6001 H       1  UNL1        0.1700
     11 N         139.4404  138.3774  163.8987 N.pl3   1  UNL1       -0.2816
     12 H         138.7639  137.6701  164.0055 H       1  UNL1        0.1551
     13 C         143.7805  137.5166  161.1742 C.3     1  UNL1        0.0307
     14 C         142.3840  138.0580  161.2561 C.ar    1  UNL1       -0.0244
     15 C         141.6104  137.9470  162.5364 C.ar    1  UNL1        0.0132
     16 C         140.2139  138.4884  162.6184 C.ar    1  UNL1        0.0845
     17 C         139.5910  139.1408  161.4200 C.ar    1  UNL1        0.1513
     18 C         140.3646  139.2518  160.1395 C.ar    1  UNL1        0.0336
     19 C         141.7610  138.7104  160.0576 C.ar    1  UNL1       -0.0233
     20 C         142.5345  138.8214  158.7773 C.3     1  UNL1        0.0249
     21 C         142.4625  137.7217  157.7598 C.3     1  UNL1        0.0217
     22 C         143.2361  137.8327  156.4795 C.3     1  UNL1        0.0725
     23 N         144.0817  139.0434  156.2166 N.3     1  UNL1       -0.2715
     24 C         144.8553  139.1545  154.9363 C.3     1  UNL1        0.0896
     25 C         144.1536  140.1432  157.2342 C.3     1  UNL1        0.0725
     26 C         143.3801  140.0322  158.5145 C.3     1  UNL1        0.0217
     27 O         138.1945  139.6822  161.5018 O.3     1  UNL1       -0.4779
     28 C         137.9684  141.1255  161.8420 C.3     1  UNL1        0.1662
     29 C         137.3146  141.4966  163.1400 C.3     1  UNL1        0.0472
     30 C         138.3961  142.1977  160.8842 C.3     1  UNL1        0.0472
     31 N         141.3064  142.9293  165.5717 N.pl3   1  UNL1       -0.2968
     32 H         141.9947  143.2703  166.1875 H       1  UNL1        0.1536
     33 C         140.9335  143.7191  164.3522 C.ar    1  UNL1        0.0667
     34 C         139.6853  144.5509  164.3500 C.ar    1  UNL1        0.0159
     35 C         139.3125  145.3406  163.1304 C.ar    1  UNL1        0.0014
     36 C         140.1879  145.2985  161.9131 C.ar    1  UNL1        0.0014
     37 C         141.4361  144.4667  161.9153 C.ar    1  UNL1        0.0196
     38 C         141.8089  143.6769  163.1349 C.ar    1  UNL1        0.1189
     39 S         143.0571  142.8451  163.1371 S.O2    1  UNL1        0.0082
     40 O         142.3831  141.8313  162.2610 O.2     1  UNL1       -0.1686
     41 O         143.7312  143.8590  164.0133 O.2     1  UNL1       -0.1686
     42 C         144.3053  142.0133  163.1394 C.3     1  UNL1        0.1340
     43 C         145.3019  142.1592  164.2509 C.3     1  UNL1        0.0257
     44 C         144.5569  141.0355  162.0300 C.3     1  UNL1        0.0257
@<TRIPOS>BOND
     1    13    14    1
     2    14    15   ar
     3    15    16   ar
     4    16    11    1
     5    11     1    1
     6     1     2   ar
     7     2     3   ar
     8     3    31    1
     9    31    33    1
    10    33    34   ar
    11    34    35   ar
    12    35    36   ar
    13    36    37   ar
    14    37    38   ar
    15    38    39    1
    16    39    40    2
    17    39    41    2
    18    39    42    1
    19    42    43    1
    20    42    44    1
    21     3     4   ar
    22     4     5   ar
    23     5     6   ar
    24     6     7   ar
    25     7     8   ar
    26     8     9   ar
    27    16    17   ar
    28    17    27    1
    29    27    28    1
    30    28    29    1
    31    28    30    1
    32    17    18   ar
    33    18    19   ar
    34    19    20    1
    35    20    21    1
    36    21    22    1
    37    22    23    1
    38    23    24    1
    39    23    25    1
    40    25    26    1
    41    19    14   ar
    42    26    20    1
    43     9     1   ar
    44    38    33   ar
    45     8     4    1
    46    11    12    1
    47    31    32    1
    48     9    10    1
@<TRIPOS>MOLECULE
*****
 44 48 0 0 0
SMALL
GASTEIGER

@<TRIPOS>ATOM
      1 C         141.8939  138.1020  161.0487 C.ar    1  UNL1        0.2006
      2 N         140.9240  139.2245  160.8275 N.ar    1  UNL1       -0.2000
      3 C         140.7930  139.8458  159.4684 C.ar    1  UNL1        0.1379
      4 C         141.6321  139.3444  158.3306 C.ar    1  UNL1        0.0673
      5 C         141.7211  139.7571  156.8913 C.ar    1  UNL1        0.0265
      6 C         142.7461  138.8896  156.2229 C.ar    1  UNL1        0.1007
      7 N         143.2906  137.9407  157.2492 N.ar    1  UNL1       -0.2268
      8 C         142.6020  138.2218  158.5518 C.ar    1  UNL1        0.1452
      9 N         142.7330  137.6006  159.9109 N.ar    1  UNL1       -0.3118
     10 H         143.3696  136.8638  160.0560 H       1  UNL1        0.1700
     11 N         142.0249  137.4807  162.4077 N.pl3   1  UNL1       -0.2816
     12 H         142.3322  136.5495  162.4958 H       1  UNL1        0.1551
     13 C         138.5515  139.0568  165.9364 C.3     1  UNL1        0.0307
     14 C         139.9511  139.0663  165.3969 C.ar    1  UNL1       -0.0244
     15 C         140.2882  138.2687  164.1721 C.ar    1  UNL1        0.0132
     16 C         141.6878  138.2782  163.6325 C.ar    1  UNL1        0.0845
     17 C         142.7503  139.0854  164.3179 C.ar    1  UNL1        0.1513
     18 C         142.4131  139.8830  165.5428 C.ar    1  UNL1        0.0336
     19 C         141.0136  139.8735  166.0822 C.ar    1  UNL1       -0.0233
     20 C         140.6765  140.6710  167.3071 C.3     1  UNL1        0.0249
     21 C         140.3380  139.9697  168.5891 C.3     1  UNL1        0.0217
     22 C         140.0009  140.7673  169.8139 C.3     1  UNL1        0.0725
     23 N         140.0022  142.2662  169.7567 N.3     1  UNL1       -0.2715
     24 C         139.6651  143.0639  170.9815 C.3     1  UNL1        0.0896
     25 C         140.3408  142.9675  168.4747 C.3     1  UNL1        0.0725
     26 C         140.6779  142.1699  167.2499 C.3     1  UNL1        0.0217
     27 O         144.1499  139.0949  163.7784 O.3     1  UNL1       -0.4779
     28 C         144.6923  140.3299  163.1221 C.3     1  UNL1        0.1662
     29 C         145.6136  141.2390  163.8802 C.3     1  UNL1        0.0472
     30 C         144.3134  140.6556  161.7078 C.3     1  UNL1        0.0472
     31 N         139.8230  140.9684  159.2473 N.pl3   1  UNL1       -0.2968
     32 H         138.9025  140.7737  158.9575 H       1  UNL1        0.1536
     33 C         140.2555  142.3877  159.4678 C.ar    1  UNL1        0.0667
     34 C         141.0715  143.0936  158.4258 C.ar    1  UNL1        0.0159
     35 C         141.5040  144.5129  158.6464 C.ar    1  UNL1        0.0014
     36 C         141.1204  145.2262  159.9090 C.ar    1  UNL1        0.0014
     37 C         140.3044  144.5202  160.9510 C.ar    1  UNL1        0.0196
     38 C         139.8720  143.1010  160.7304 C.ar    1  UNL1        0.1189
     39 S         139.0560  142.3950  161.7724 S.O2    1  UNL1        0.0082
     40 O         140.3145  141.9509  162.4571 O.2     1  UNL1       -0.1686
     41 O         137.7974  142.8391  161.0877 O.2     1  UNL1       -0.1686
     42 C         138.2400  141.6891  162.8144 C.3     1  UNL1        0.1340
     43 C         137.6448  140.3447  162.5172 C.3     1  UNL1        0.0257
     44 C         138.0191  142.3276  164.1536 C.3     1  UNL1        0.0257
@<TRIPOS>BOND
     1    13    14    1
     2    14    15   ar
     3    15    16   ar
     4    16    11    1
     5    11     1    1
     6     1     2   ar
     7     2     3   ar
     8     3    31    1
     9    31    33    1
    10    33    34   ar
    11    34    35   ar
    12    35    36   ar
    13    36    37   ar
    14    37    38   ar
    15    38    39    1
    16    39    40    2
    17    39    41    2
    18    39    42    1
    19    42    43    1
    20    42    44    1
    21     3     4   ar
    22     4     5   ar
    23     5     6   ar
    24     6     7   ar
    25     7     8   ar
    26     8     9   ar
    27    16    17   ar
    28    17    27    1
    29    27    28    1
    30    28    29    1
    31    28    30    1
    32    17    18   ar
    33    18    19   ar
    34    19    20    1
    35    20    21    1
    36    21    22    1
    37    22    23    1
    38    23    24    1
    39    23    25    1
    40    25    26    1
    41    19    14   ar
    42    26    20    1
    43     9     1   ar
    44    38    33   ar
    45     8     4    1
    46    11    12    1
    47    31    32    1
    48     9    10    1
@<TRIPOS>MOLECULE
*****
 44 48 0 0 0
SMALL
GASTEIGER

@<TRIPOS>ATOM
      1 C         139.2985  139.2846  165.8604 C.ar    1  UNL1        0.2006
      2 N         139.9039  140.5823  165.4141 N.ar    1  UNL1       -0.2000
      3 C         140.2909  141.6176  166.4283 C.ar    1  UNL1        0.1379
      4 C         140.0725  141.3549  167.8889 C.ar    1  UNL1        0.0673
      5 C         140.3522  142.1801  169.1098 C.ar    1  UNL1        0.0265
      6 C         139.9197  141.3923  170.3108 C.ar    1  UNL1        0.1007
      7 N         139.3727  140.0802  169.8320 N.ar    1  UNL1       -0.2268
      8 C         139.4672  140.0570  168.3352 C.ar    1  UNL1        0.1452
      9 N         139.0802  139.0219  167.3210 N.ar    1  UNL1       -0.3118
     10 H         138.6828  138.1701  167.6139 H       1  UNL1        0.1700
     11 N         138.9115  138.2494  164.8461 N.pl3   1  UNL1       -0.2816
     12 H         138.4586  137.4238  165.1335 H       1  UNL1        0.1551
     13 C         137.4295  139.8696  160.1366 C.3     1  UNL1        0.0307
     14 C         138.4736  139.2822  161.0393 C.ar    1  UNL1       -0.0244
     15 C         138.1705  139.0595  162.4913 C.ar    1  UNL1        0.0132
     16 C         139.2146  138.4721  163.3941 C.ar    1  UNL1        0.0845
     17 C         140.5618  138.1073  162.8446 C.ar    1  UNL1        0.1513
     18 C         140.8650  138.3300  161.3925 C.ar    1  UNL1        0.0336
     19 C         139.8209  138.9174  160.4899 C.ar    1  UNL1       -0.0233
     20 C         140.1240  139.1401  159.0378 C.3     1  UNL1        0.0249
     21 C         140.6845  140.4545  158.5816 C.3     1  UNL1        0.0217
     22 C         140.9876  140.6772  157.1295 C.3     1  UNL1        0.0725
     23 N         140.7303  139.5854  156.1337 N.3     1  UNL1       -0.2715
     24 C         141.0333  139.8080  154.6815 C.3     1  UNL1        0.0896
     25 C         140.1698  138.2709  156.5899 C.3     1  UNL1        0.0725
     26 C         139.8667  138.0483  158.0419 C.3     1  UNL1        0.0217
     27 O         141.6060  137.5199  163.7473 O.3     1  UNL1       -0.4779
     28 C         142.6548  138.4032  164.3552 C.3     1  UNL1        0.1662
     29 C         143.5167  139.2592  163.4751 C.3     1  UNL1        0.0472
     30 C         142.8419  138.4306  165.8432 C.3     1  UNL1        0.0472
     31 N         140.8963  142.9154  165.9819 N.pl3   1  UNL1       -0.2968
     32 H         140.4966  143.7688  166.2669 H       1  UNL1        0.1536
     33 C         142.1105  142.9129  165.1013 C.ar    1  UNL1        0.0667
     34 C         143.4707  142.7084  165.6997 C.ar    1  UNL1        0.0159
     35 C         144.6849  142.7059  164.8191 C.ar    1  UNL1        0.0014
     36 C         144.5390  142.9080  163.3399 C.ar    1  UNL1        0.0014
     37 C         143.1788  143.1126  162.7415 C.ar    1  UNL1        0.0196
     38 C         141.9646  143.1150  163.6221 C.ar    1  UNL1        0.1189
     39 S         140.6045  143.3196  163.0237 S.O2    1  UNL1        0.0082
     40 O         140.5251  144.6726  163.6665 O.2     1  UNL1       -0.1686
     41 O         140.6838  141.9666  162.3809 O.2     1  UNL1       -0.1686
     42 C         139.2443  143.5242  162.4252 C.3     1  UNL1        0.1340
     43 C         138.1732  144.2150  163.2159 C.3     1  UNL1        0.0257
     44 C         138.9554  143.0378  161.0360 C.3     1  UNL1        0.0257
@<TRIPOS>BOND
     1    13    14    1
     2    14    15   ar
     3    15    16   ar
     4    16    11    1
     5    11     1    1
     6     1     2   ar
     7     2     3   ar
     8     3    31    1
     9    31    33    1
    10    33    34   ar
    11    34    35   ar
    12    35    36   ar
    13    36    37   ar
    14    37    38   ar
    15    38    39    1
    16    39    40    2
    17    39    41    2
    18    39    42    1
    19    42    43    1
    20    42    44    1
    21     3     4   ar
    22     4     5   ar
    23     5     6   ar
    24     6     7   ar
    25     7     8   ar
    26     8     9   ar
    27    16    17   ar
    28    17    27    1
    29    27    28    1
    30    28    29    1
    31    28    30    1
    32    17    18   ar
    33    18    19   ar
    34    19    20    1
    35    20    21    1
    36    21    22    1
    37    22    23    1
    38    23    24    1
    39    23    25    1
    40    25    26    1
    41    19    14   ar
    42    26    20    1
    43     9     1   ar
    44    38    33   ar
    45     8     4    1
    46    11    12    1
    47    31    32    1
    48     9    10    1
@<TRIPOS>MOLECULE
*****
 44 48 0 0 0
SMALL
GASTEIGER

@<TRIPOS>ATOM
      1 C         141.5012  144.9165  160.6123 C.ar    1  UNL1        0.2006
      2 N         140.3478  143.9577  160.6128 N.ar    1  UNL1       -0.2000
      3 C         139.6053  143.6769  159.3401 C.ar    1  UNL1        0.1379
      4 C         140.0162  144.3550  158.0668 C.ar    1  UNL1        0.0673
      5 C         139.4777  144.2769  156.6690 C.ar    1  UNL1        0.0265
      6 C         140.2984  145.1876  155.8046 C.ar    1  UNL1        0.1007
      7 N         141.3441  145.8285  156.6682 N.ar    1  UNL1       -0.2268
      8 C         141.1697  145.3140  158.0664 C.ar    1  UNL1        0.1452
      9 N         141.9122  145.5947  159.3391 N.ar    1  UNL1       -0.3118
     10 H         142.6692  146.2241  159.3388 H       1  UNL1        0.1700
     11 N         142.2437  145.1973  161.8851 N.pl3   1  UNL1       -0.2816
     12 H         142.9668  145.8654  161.8961 H       1  UNL1        0.1551
     13 C         138.7012  143.7702  165.4086 C.3     1  UNL1        0.0307
     14 C         140.1132  143.7467  164.9029 C.ar    1  UNL1       -0.0244
     15 C         140.4725  144.4838  163.6469 C.ar    1  UNL1        0.0132
     16 C         141.8845  144.4602  163.1411 C.ar    1  UNL1        0.0845
     17 C         142.9373  143.6996  163.8915 C.ar    1  UNL1        0.1513
     18 C         142.5780  142.9625  165.1476 C.ar    1  UNL1        0.0336
     19 C         141.1661  142.9860  165.6533 C.ar    1  UNL1       -0.0233
     20 C         140.8069  142.2489  166.9093 C.3     1  UNL1        0.0249
     21 C         140.3859  140.8108  166.8406 C.3     1  UNL1        0.0217
     22 C         140.0267  140.0737  168.0967 C.3     1  UNL1        0.0725
     23 N         140.0884  140.7747  169.4214 N.3     1  UNL1       -0.2715
     24 C         139.7292  140.0377  170.6775 C.3     1  UNL1        0.0896
     25 C         140.5094  142.2128  169.4900 C.3     1  UNL1        0.0725
     26 C         140.8687  142.9499  168.2340 C.3     1  UNL1        0.0217
     27 O         144.3493  143.6760  163.3858 O.3     1  UNL1       -0.4779
     28 C         144.8851  142.4463  162.7145 C.3     1  UNL1        0.1662
     29 C         144.6367  142.2214  161.2524 C.3     1  UNL1        0.0472
     30 C         145.6693  141.4415  163.5053 C.3     1  UNL1        0.0472
     31 N         138.4518  142.7179  159.3406 N.pl3   1  UNL1       -0.2968
     32 H         137.8034  142.7273  158.5998 H       1  UNL1        0.1536
     33 C         138.2862  141.7446  160.4699 C.ar    1  UNL1        0.0667
     34 C         137.8599  142.2313  161.8232 C.ar    1  UNL1        0.0159
     35 C         137.6943  141.2580  162.9524 C.ar    1  UNL1        0.0014
     36 C         137.9550  139.7979  162.7283 C.ar    1  UNL1        0.0014
     37 C         138.3812  139.3112  161.3750 C.ar    1  UNL1        0.0196
     38 C         138.5468  140.2845  160.2458 C.ar    1  UNL1        0.1189
     39 S         138.9731  139.7978  158.8925 S.O2    1  UNL1        0.0082
     40 O         140.3285  139.4619  159.4402 O.2     1  UNL1       -0.1686
     41 O         137.6176  140.1336  158.3448 O.2     1  UNL1       -0.1686
     42 C         139.3993  139.3110  157.5392 C.3     1  UNL1        0.1340
     43 C         140.0595  137.9717  157.3976 C.3     1  UNL1        0.0257
     44 C         139.1653  140.1638  156.3276 C.3     1  UNL1        0.0257
@<TRIPOS>BOND
     1    13    14    1
     2    14    15   ar
     3    15    16   ar
     4    16    11    1
     5    11     1    1
     6     1     2   ar
     7     2     3   ar
     8     3    31    1
     9    31    33    1
    10    33    34   ar
    11    34    35   ar
    12    35    36   ar
    13    36    37   ar
    14    37    38   ar
    15    38    39    1
    16    39    40    2
    17    39    41    2
    18    39    42    1
    19    42    43    1
    20    42    44    1
    21     3     4   ar
    22     4     5   ar
    23     5     6   ar
    24     6     7   ar
    25     7     8   ar
    26     8     9   ar
    27    16    17   ar
    28    17    27    1
    29    27    28    1
    30    28    29    1
    31    28    30    1
    32    17    18   ar
    33    18    19   ar
    34    19    20    1
    35    20    21    1
    36    21    22    1
    37    22    23    1
    38    23    24    1
    39    23    25    1
    40    25    26    1
    41    19    14   ar
    42    26    20    1
    43     9     1   ar
    44    38    33   ar
    45     8     4    1
    46    11    12    1
    47    31    32    1
    48     9    10    1
