@<TRIPOS>MOLECULE
*****
 19 22 0 0 0
SMALL
GASTEIGER

@<TRIPOS>ATOM
      1 O         137.5075  138.4244  166.5806 O.2     1  UNL1       -0.2666
      2 C         138.7501  139.2073  166.2755 C.2     1  UNL1        0.2834
      3 C         139.5084  139.8733  167.3852 C.ar    1  UNL1        0.1985
      4 N         139.2748  139.9330  168.8657 N.ar    1  UNL1       -0.2226
      5 C         140.3731  140.7527  169.4756 C.ar    1  UNL1        0.0996
      6 C         140.6602  141.1498  170.8933 C.ar    1  UNL1        0.0207
      7 C         141.8597  141.9940  171.2074 C.ar    1  UNL1        0.0025
      8 C         142.7720  142.4409  170.1038 C.ar    1  UNL1        0.0130
      9 C         142.4849  142.0437  168.6861 C.ar    1  UNL1        0.0749
     10 CL        143.3972  142.4907  167.5826 Cl      1  UNL1       -0.0807
     11 C         141.2854  141.1996  168.3721 C.ar    1  UNL1        0.0897
     12 N         140.7510  140.6561  167.0802 N.ar    1  UNL1       -0.3054
     13 C         141.2353  140.7729  165.6653 C.3     1  UNL1        0.1291
     14 C         140.4771  140.1069  164.5556 C.3     1  UNL1        0.1183
     15 N         139.2345  139.3241  164.8607 N.am    1  UNL1       -0.2716
     16 C         138.4762  138.6580  163.7510 C.3     1  UNL1        0.0938
     17 C         138.0560  139.4505  162.5487 C.3     1  UNL1        0.0199
     18 C         137.6968  139.5113  161.0936 C.3     1  UNL1        0.0018
     19 C         137.6875  140.7622  161.9214 C.3     1  UNL1        0.0018
@<TRIPOS>BOND
     1     1     2    2
     2     2     3    1
     3     3     4   ar
     4     4     5   ar
     5     5     6   ar
     6     6     7   ar
     7     7     8   ar
     8     8     9   ar
     9     9    10    1
    10     9    11   ar
    11    11    12   ar
    12    12    13    1
    13    13    14    1
    14    14    15    1
    15    15    16    1
    16    16    17    1
    17    17    18    1
    18    18    19    1
    19    15     2   am
    20    19    17    1
    21    12     3   ar
    22    11     5   ar
@<TRIPOS>MOLECULE
*****
 19 22 0 0 0
SMALL
GASTEIGER

@<TRIPOS>ATOM
      1 O         143.7294  138.3435  167.2307 O.2     1  UNL1       -0.2666
      2 C         142.4630  139.1176  167.0142 C.2     1  UNL1        0.2834
      3 C         141.6803  138.9363  165.7475 C.ar    1  UNL1        0.1985
      4 N         141.9075  138.0729  164.5421 N.ar    1  UNL1       -0.2226
      5 C         140.7815  138.3134  163.5807 C.ar    1  UNL1        0.0996
      6 C         140.4776  137.7416  162.2277 C.ar    1  UNL1        0.0207
      7 C         139.2504  138.1819  161.4859 C.ar    1  UNL1        0.0025
      8 C         138.3273  139.1939  162.0971 C.ar    1  UNL1        0.0130
      9 C         138.6313  139.7657  163.4501 C.ar    1  UNL1        0.0749
     10 CL        137.7081  140.7778  164.0613 Cl      1  UNL1       -0.0807
     11 C         139.8584  139.3255  164.1919 C.ar    1  UNL1        0.0897
     12 N         140.4139  139.7104  165.5310 N.ar    1  UNL1       -0.3054
     13 C         139.9301  140.6658  166.5813 C.3     1  UNL1        0.1291
     14 C         140.7128  140.8471  167.8480 C.3     1  UNL1        0.1183
     15 N         141.9792  140.0730  168.0645 N.am    1  UNL1       -0.2716
     16 C         142.7619  140.2543  169.3312 C.3     1  UNL1        0.0938
     17 C         143.1928  141.6266  169.7567 C.3     1  UNL1        0.0199
     18 C         144.2663  142.6641  169.9029 C.3     1  UNL1        0.0018
     19 C         142.8658  142.9661  170.3473 C.3     1  UNL1        0.0018
@<TRIPOS>BOND
     1     1     2    2
     2     2     3    1
     3     3     4   ar
     4     4     5   ar
     5     5     6   ar
     6     6     7   ar
     7     7     8   ar
     8     8     9   ar
     9     9    10    1
    10     9    11   ar
    11    11    12   ar
    12    12    13    1
    13    13    14    1
    14    14    15    1
    15    15    16    1
    16    16    17    1
    17    17    18    1
    18    18    19    1
    19    15     2   am
    20    19    17    1
    21    12     3   ar
    22    11     5   ar
@<TRIPOS>MOLECULE
*****
 19 22 0 0 0
SMALL
GASTEIGER

@<TRIPOS>ATOM
      1 O         138.3755  139.2581  166.8290 O.2     1  UNL1       -0.2666
      2 C         139.8396  139.5556  166.6956 C.2     1  UNL1        0.2834
      3 C         140.5723  139.1707  165.4446 C.ar    1  UNL1        0.1985
      4 N         140.1206  138.4927  164.1852 N.ar    1  UNL1       -0.2226
      5 C         141.3055  138.3712  163.2734 C.ar    1  UNL1        0.0996
      6 C         141.4593  137.7895  161.8995 C.ar    1  UNL1        0.0207
      7 C         142.7971  137.8107  161.2215 C.ar    1  UNL1        0.0025
      8 C         143.9812  138.4137  161.9174 C.ar    1  UNL1        0.0130
      9 C         143.8274  138.9955  163.2914 C.ar    1  UNL1        0.0749
     10 CL        145.0115  139.5984  163.9874 Cl      1  UNL1       -0.0807
     11 C         142.4896  138.9742  163.9694 C.ar    1  UNL1        0.0897
     12 N         142.0365  139.4683  165.3113 N.ar    1  UNL1       -0.3054
     13 C         142.7679  140.1508  166.4289 C.3     1  UNL1        0.1291
     14 C         142.0352  140.5357  167.6800 C.3     1  UNL1        0.1183
     15 N         140.5711  140.2381  167.8133 N.am    1  UNL1       -0.2716
     16 C         139.8384  140.6230  169.0643 C.3     1  UNL1        0.0938
     17 C         139.9775  142.0099  169.6184 C.3     1  UNL1        0.0199
     18 C         139.7489  142.9954  170.7259 C.3     1  UNL1        0.0018
     19 C         140.4473  143.4268  169.4706 C.3     1  UNL1        0.0018
@<TRIPOS>BOND
     1     1     2    2
     2     2     3    1
     3     3     4   ar
     4     4     5   ar
     5     5     6   ar
     6     6     7   ar
     7     7     8   ar
     8     8     9   ar
     9     9    10    1
    10     9    11   ar
    11    11    12   ar
    12    12    13    1
    13    13    14    1
    14    14    15    1
    15    15    16    1
    16    16    17    1
    17    17    18    1
    18    18    19    1
    19    15     2   am
    20    19    17    1
    21    12     3   ar
    22    11     5   ar
@<TRIPOS>MOLECULE
*****
 19 22 0 0 0
SMALL
GASTEIGER

@<TRIPOS>ATOM
      1 O         138.1259  143.3166  161.1096 O.2     1  UNL1       -0.2666
      2 C         138.9742  143.5312  162.3280 C.2     1  UNL1        0.2834
      3 C         138.9267  142.5458  163.4580 C.ar    1  UNL1        0.1985
      4 N         138.1467  141.2796  163.6534 N.ar    1  UNL1       -0.2226
      5 C         138.5128  140.7115  164.9925 C.ar    1  UNL1        0.0996
      6 C         138.0599  139.4792  165.7179 C.ar    1  UNL1        0.0207
      7 C         138.6133  139.1621  167.0755 C.ar    1  UNL1        0.0025
      8 C         139.6196  140.0773  167.7077 C.ar    1  UNL1        0.0130
      9 C         140.0725  141.3096  166.9824 C.ar    1  UNL1        0.0749
     10 CL        141.0789  142.2248  167.6146 Cl      1  UNL1       -0.0807
     11 C         139.5191  141.6267  165.6248 C.ar    1  UNL1        0.0897
     12 N         139.7749  142.7604  164.6764 N.ar    1  UNL1       -0.3054
     13 C         140.6706  143.9603  164.7648 C.3     1  UNL1        0.1291
     14 C         140.7181  144.9457  163.6348 C.3     1  UNL1        0.1183
     15 N         139.8699  144.7311  162.4164 N.am    1  UNL1       -0.2716
     16 C         139.9173  145.7165  161.2865 C.3     1  UNL1        0.0938
     17 C         140.5503  145.3319  159.9821 C.3     1  UNL1        0.0199
     18 C         140.5473  145.3477  158.4821 C.3     1  UNL1        0.0018
     19 C         141.6495  144.6500  159.2227 C.3     1  UNL1        0.0018
@<TRIPOS>BOND
     1     1     2    2
     2     2     3    1
     3     3     4   ar
     4     4     5   ar
     5     5     6   ar
     6     6     7   ar
     7     7     8   ar
     8     8     9   ar
     9     9    10    1
    10     9    11   ar
    11    11    12   ar
    12    12    13    1
    13    13    14    1
    14    14    15    1
    15    15    16    1
    16    16    17    1
    17    17    18    1
    18    18    19    1
    19    15     2   am
    20    19    17    1
    21    12     3   ar
    22    11     5   ar
@<TRIPOS>MOLECULE
*****
 19 22 0 0 0
SMALL
GASTEIGER

@<TRIPOS>ATOM
      1 O         142.7878  140.3886  168.3030 O.2     1  UNL1       -0.2666
      2 C         141.6729  139.9515  167.3997 C.2     1  UNL1        0.2834
      3 C         141.9739  139.4987  166.0017 C.ar    1  UNL1        0.1985
      4 N         143.2612  139.3766  165.2415 N.ar    1  UNL1       -0.2226
      5 C         142.9419  138.8640  163.8684 C.ar    1  UNL1        0.0996
      6 C         143.8112  138.5494  162.6872 C.ar    1  UNL1        0.0207
      7 C         143.1959  138.0401  161.4176 C.ar    1  UNL1        0.0025
      8 C         141.7112  137.8454  161.3292 C.ar    1  UNL1        0.0130
      9 C         140.8419  138.1600  162.5104 C.ar    1  UNL1        0.0749
     10 CL        139.3572  137.9653  162.4220 Cl      1  UNL1       -0.0807
     11 C         141.4572  138.6693  163.7800 C.ar    1  UNL1        0.0897
     12 N         140.8590  139.0616  165.0984 N.ar    1  UNL1       -0.3054
     13 C         139.4431  139.0772  165.5932 C.3     1  UNL1        0.1291
     14 C         139.1420  139.5300  166.9912 C.3     1  UNL1        0.1183
     15 N         140.2569  139.9671  167.8945 N.am    1  UNL1       -0.2716
     16 C         139.9559  140.4199  169.2925 C.3     1  UNL1        0.0938
     17 C         140.0304  141.8768  169.6414 C.3     1  UNL1        0.0199
     18 C         140.4508  143.2751  169.2977 C.3     1  UNL1        0.0018
     19 C         139.7390  143.0021  170.5895 C.3     1  UNL1        0.0018
@<TRIPOS>BOND
     1     1     2    2
     2     2     3    1
     3     3     4   ar
     4     4     5   ar
     5     5     6   ar
     6     6     7   ar
     7     7     8   ar
     8     8     9   ar
     9     9    10    1
    10     9    11   ar
    11    11    12   ar
    12    12    13    1
    13    13    14    1
    14    14    15    1
    15    15    16    1
    16    16    17    1
    17    17    18    1
    18    18    19    1
    19    15     2   am
    20    19    17    1
    21    12     3   ar
    22    11     5   ar
@<TRIPOS>MOLECULE
*****
 19 22 0 0 0
SMALL
GASTEIGER

@<TRIPOS>ATOM
      1 O         138.8889  137.8186  164.7699 O.2     1  UNL1       -0.2666
      2 C         140.0834  138.6844  165.0411 C.2     1  UNL1        0.2834
      3 C         140.1605  139.4800  166.3104 C.ar    1  UNL1        0.1985
      4 N         139.2202  139.6107  167.4717 N.ar    1  UNL1       -0.2226
      5 C         139.8335  140.5573  168.4605 C.ar    1  UNL1        0.0996
      6 C         139.3609  141.0643  169.7908 C.ar    1  UNL1        0.0207
      7 C         140.2079  142.0255  170.5709 C.ar    1  UNL1        0.0025
      8 C         141.5273  142.4798  170.0208 C.ar    1  UNL1        0.0130
      9 C         141.9998  141.9729  168.6905 C.ar    1  UNL1        0.0749
     10 CL        143.3192  142.4272  168.1403 Cl      1  UNL1       -0.0807
     11 C         141.1529  141.0116  167.9104 C.ar    1  UNL1        0.0897
     12 N         141.3550  140.3458  166.5815 N.ar    1  UNL1       -0.3054
     13 C         142.4724  140.4161  165.5833 C.3     1  UNL1        0.1291
     14 C         142.3954  139.6205  164.3140 C.3     1  UNL1        0.1183
     15 N         141.2009  138.7547  164.0429 N.am    1  UNL1       -0.2716
     16 C         141.1238  137.9591  162.7735 C.3     1  UNL1        0.0938
     17 C         142.3116  137.8869  161.8604 C.3     1  UNL1        0.0199
     18 C         143.7930  137.9843  161.6457 C.3     1  UNL1        0.0018
     19 C         142.8876  137.6643  160.4934 C.3     1  UNL1        0.0018
@<TRIPOS>BOND
     1     1     2    2
     2     2     3    1
     3     3     4   ar
     4     4     5   ar
     5     5     6   ar
     6     6     7   ar
     7     7     8   ar
     8     8     9   ar
     9     9    10    1
    10     9    11   ar
    11    11    12   ar
    12    12    13    1
    13    13    14    1
    14    14    15    1
    15    15    16    1
    16    16    17    1
    17    17    18    1
    18    18    19    1
    19    15     2   am
    20    19    17    1
    21    12     3   ar
    22    11     5   ar
@<TRIPOS>MOLECULE
*****
 19 22 0 0 0
SMALL
GASTEIGER

@<TRIPOS>ATOM
      1 O         143.8947  139.9861  164.6378 O.2     1  UNL1       -0.2666
      2 C         142.7182  140.7846  165.1156 C.2     1  UNL1        0.2834
      3 C         142.1597  141.8827  164.2598 C.ar    1  UNL1        0.1985
      4 N         142.5559  142.4033  162.9100 N.ar    1  UNL1       -0.2226
      5 C         141.6244  143.5236  162.5535 C.ar    1  UNL1        0.0996
      6 C         141.5356  144.4096  161.3464 C.ar    1  UNL1        0.0207
      7 C         140.4748  145.4672  161.2687 C.ar    1  UNL1        0.0025
      8 C         139.5028  145.6390  162.3982 C.ar    1  UNL1        0.0130
      9 C         139.5916  144.7531  163.6053 C.ar    1  UNL1        0.0749
     10 CL        138.6197  144.9248  164.7348 Cl      1  UNL1       -0.0807
     11 C         140.6524  143.6954  163.6830 C.ar    1  UNL1        0.0897
     12 N         140.9833  142.6812  164.7375 N.ar    1  UNL1       -0.3054
     13 C         140.3653  142.3817  166.0710 C.3     1  UNL1        0.1291
     14 C         140.9238  141.2836  166.9268 C.3     1  UNL1        0.1183
     15 N         142.1002  140.4851  166.4491 N.am    1  UNL1       -0.2716
     16 C         142.6587  139.3870  167.3049 C.3     1  UNL1        0.0938
     17 C         142.6574  139.5258  168.7985 C.3     1  UNL1        0.0199
     18 C         142.4369  138.9319  170.1581 C.3     1  UNL1        0.0018
     19 C         142.8754  140.3602  170.0258 C.3     1  UNL1        0.0018
@<TRIPOS>BOND
     1     1     2    2
     2     2     3    1
     3     3     4   ar
     4     4     5   ar
     5     5     6   ar
     6     6     7   ar
     7     7     8   ar
     8     8     9   ar
     9     9    10    1
    10     9    11   ar
    11    11    12   ar
    12    12    13    1
    13    13    14    1
    14    14    15    1
    15    15    16    1
    16    16    17    1
    17    17    18    1
    18    18    19    1
    19    15     2   am
    20    19    17    1
    21    12     3   ar
    22    11     5   ar
@<TRIPOS>MOLECULE
*****
 19 22 0 0 0
SMALL
GASTEIGER

@<TRIPOS>ATOM
      1 O         142.5054  142.0544  163.4790 O.2     1  UNL1       -0.2666
      2 C         142.6391  141.0785  164.6102 C.2     1  UNL1        0.2834
      3 C         142.0881  141.4185  165.9633 C.ar    1  UNL1        0.1985
      4 N         141.3682  142.6294  166.4785 N.ar    1  UNL1       -0.2226
      5 C         141.0570  142.4019  167.9281 C.ar    1  UNL1        0.0996
      6 C         140.3614  143.2507  168.9506 C.ar    1  UNL1        0.0207
      7 C         140.1934  142.7480  170.3538 C.ar    1  UNL1        0.0025
      8 C         140.7210  141.3964  170.7345 C.ar    1  UNL1        0.0130
      9 C         141.4166  140.5476  169.7120 C.ar    1  UNL1        0.0749
     10 CL        141.9442  139.1960  170.0927 Cl      1  UNL1       -0.0807
     11 C         141.5846  141.0503  168.3088 C.ar    1  UNL1        0.0897
     12 N         142.2218  140.4426  167.0945 N.ar    1  UNL1       -0.3054
     13 C         142.9066  139.1266  166.8726 C.3     1  UNL1        0.1291
     14 C         143.4577  138.7866  165.5196 C.3     1  UNL1        0.1183
     15 N         143.3239  139.7625  164.3884 N.am    1  UNL1       -0.2716
     16 C         143.8750  139.4225  163.0353 C.3     1  UNL1        0.0938
     17 C         143.0976  138.5331  162.1108 C.3     1  UNL1        0.0199
     18 C         141.8296  137.8105  161.7644 C.3     1  UNL1        0.0018
     19 C         143.0193  137.7153  160.8558 C.3     1  UNL1        0.0018
@<TRIPOS>BOND
     1     1     2    2
     2     2     3    1
     3     3     4   ar
     4     4     5   ar
     5     5     6   ar
     6     6     7   ar
     7     7     8   ar
     8     8     9   ar
     9     9    10    1
    10     9    11   ar
    11    11    12   ar
    12    12    13    1
    13    13    14    1
    14    14    15    1
    15    15    16    1
    16    16    17    1
    17    17    18    1
    18    18    19    1
    19    15     2   am
    20    19    17    1
    21    12     3   ar
    22    11     5   ar
@<TRIPOS>MOLECULE
*****
 19 22 0 0 0
SMALL
GASTEIGER

@<TRIPOS>ATOM
      1 O         142.8586  142.7524  168.4660 O.2     1  UNL1       -0.2666
      2 C         142.9816  141.6135  167.4977 C.2     1  UNL1        0.2834
      3 C         143.3479  141.8809  166.0679 C.ar    1  UNL1        0.1985
      4 N         143.6447  143.1519  165.3286 N.ar    1  UNL1       -0.2226
      5 C         143.9511  142.7986  163.9034 C.ar    1  UNL1        0.0996
      6 C         144.3140  143.6406  162.7163 C.ar    1  UNL1        0.0207
      7 C         144.5695  142.9932  161.3876 C.ar    1  UNL1        0.0025
      8 C         144.4621  141.5037  161.2460 C.ar    1  UNL1        0.0130
      9 C         144.0993  140.6617  162.4331 C.ar    1  UNL1        0.0749
     10 CL        143.9919  139.1723  162.2915 Cl      1  UNL1       -0.0807
     11 C         143.8437  141.3091  163.7618 C.ar    1  UNL1        0.0897
     12 N         143.4710  140.7420  165.0995 N.ar    1  UNL1       -0.3054
     13 C         143.2276  139.3357  165.5609 C.3     1  UNL1        0.1291
     14 C         142.8613  139.0682  166.9907 C.3     1  UNL1        0.1183
     15 N         142.7383  140.2071  167.9591 N.am    1  UNL1       -0.2716
     16 C         142.3720  139.9397  169.3889 C.3     1  UNL1        0.0938
     17 C         140.9716  140.1912  169.8640 C.3     1  UNL1        0.0199
     18 C         139.6646  140.9150  169.7299 C.3     1  UNL1        0.0018
     19 C         139.8531  139.9032  170.8211 C.3     1  UNL1        0.0018
@<TRIPOS>BOND
     1     1     2    2
     2     2     3    1
     3     3     4   ar
     4     4     5   ar
     5     5     6   ar
     6     6     7   ar
     7     7     8   ar
     8     8     9   ar
     9     9    10    1
    10     9    11   ar
    11    11    12   ar
    12    12    13    1
    13    13    14    1
    14    14    15    1
    15    15    16    1
    16    16    17    1
    17    17    18    1
    18    18    19    1
    19    15     2   am
    20    19    17    1
    21    12     3   ar
    22    11     5   ar
