@<TRIPOS>MOLECULE
*****
 31 34 0 0 0
SMALL
GASTEIGER

@<TRIPOS>ATOM
      1 C         141.1261  144.9998  159.6171 C.ar    1  UNL1        0.0537
      2 C         141.8340  143.7015  159.8688 C.ar    1  UNL1        0.0046
      3 C         141.7203  143.0323  161.2063 C.ar    1  UNL1        0.0017
      4 C         140.8987  143.6613  162.2922 C.ar    1  UNL1        0.0185
      5 C         140.1908  144.9596  162.0406 C.ar    1  UNL1        0.0017
      6 C         140.3045  145.6288  160.7030 C.ar    1  UNL1        0.0046
      7 C         140.7850  142.9921  163.6299 C.ar    1  UNL1        0.0918
      8 N         139.5773  142.1634  163.9537 N.ar    1  UNL1       -0.2433
      9 C         139.4635  141.4942  165.2912 C.ar    1  UNL1        0.0959
     10 C         140.5574  141.6536  166.3051 C.ar    1  UNL1        0.0139
     11 C         141.7651  142.4823  165.9813 C.ar    1  UNL1        0.0115
     12 C         141.8789  143.1515  164.6437 C.ar    1  UNL1        0.0750
     13 CL        143.0865  143.9802  164.3200 Cl      1  UNL1       -0.0807
     14 C         140.4437  140.9844  167.6427 C.3     1  UNL1        0.1007
     15 N         140.1845  141.8042  168.8719 N.3     1  UNL1       -0.2688
     16 C         140.4497  143.2245  169.2749 C.3     1  UNL1        0.0738
     17 C         139.8179  142.9636  170.6101 C.3     1  UNL1        0.0347
     18 C         139.5527  141.5434  170.2070 C.3     1  UNL1        0.0738
     19 N         140.0516  145.7257  157.3657 N.am    1  UNL1       -0.2794
     20 C         141.2398  145.6690  158.2794 C.2     1  UNL1        0.2495
     21 O         142.5418  146.2815  157.8555 O.2     1  UNL1       -0.2698
     22 H         139.1970  145.3237  157.6440 H       1  UNL1        0.1552
     23 N         138.6807  148.3495  156.8797 N.pl3   1  UNL1       -0.3560
     24 C         139.4799  147.7068  155.7851 C.ar    1  UNL1        0.0552
     25 C         139.5936  148.3759  154.4475 C.ar    1  UNL1        0.0153
     26 C         140.3928  147.7332  153.3528 C.ar    1  UNL1        0.0013
     27 C         141.0782  146.4213  153.5958 C.ar    1  UNL1        0.0014
     28 C         140.9645  145.7522  154.9334 C.ar    1  UNL1        0.0159
     29 C         140.1653  146.3949  156.0281 C.ar    1  UNL1        0.0636
     30 H         138.2308  149.2106  156.7202 H       1  UNL1        0.1424
     31 H         138.6060  147.9103  157.7576 H       1  UNL1        0.1424
@<TRIPOS>BOND
     1    23    24    1
     2    24    25   ar
     3    25    26   ar
     4    26    27   ar
     5    27    28   ar
     6    28    29   ar
     7    29    19    1
     8    19    20   am
     9    20    21    2
    10    20     1    1
    11     1     2   ar
    12     2     3   ar
    13     3     4   ar
    14     4     7    1
    15     7     8   ar
    16     8     9   ar
    17     9    10   ar
    18    10    14    1
    19    14    15    1
    20    15    16    1
    21    16    17    1
    22    17    18    1
    23    10    11   ar
    24    11    12   ar
    25    12    13    1
    26     4     5   ar
    27     5     6   ar
    28    29    24   ar
    29     6     1   ar
    30    12     7   ar
    31    18    15    1
    32    23    30    1
    33    23    31    1
    34    19    22    1
@<TRIPOS>MOLECULE
*****
 31 34 0 0 0
SMALL
GASTEIGER

@<TRIPOS>ATOM
      1 C         140.7838  144.6984  159.3972 C.ar    1  UNL1        0.0537
      2 C         140.5993  145.4192  160.6997 C.ar    1  UNL1        0.0046
      3 C         140.3877  144.6407  161.9643 C.ar    1  UNL1        0.0017
      4 C         140.3605  143.1415  161.9263 C.ar    1  UNL1        0.0185
      5 C         140.5450  142.4207  160.6238 C.ar    1  UNL1        0.0017
      6 C         140.7566  143.1992  159.3593 C.ar    1  UNL1        0.0046
      7 C         140.1488  142.3629  163.1909 C.ar    1  UNL1        0.0918
      8 N         141.3290  141.8667  163.9726 N.ar    1  UNL1       -0.2433
      9 C         141.1174  141.0882  165.2371 C.ar    1  UNL1        0.0959
     10 C         139.7257  140.8058  165.7199 C.ar    1  UNL1        0.0139
     11 C         138.5455  141.3020  164.9383 C.ar    1  UNL1        0.0115
     12 C         138.7571  142.0805  163.6737 C.ar    1  UNL1        0.0750
     13 CL        137.5769  142.5766  162.8921 Cl      1  UNL1       -0.0807
     14 C         139.5140  140.0272  166.9845 C.3     1  UNL1        0.1007
     15 N         139.6605  140.7038  168.3152 N.3     1  UNL1       -0.2688
     16 C         140.3507  141.9423  168.8052 C.3     1  UNL1        0.0738
     17 C         139.8676  141.6607  170.1971 C.3     1  UNL1        0.0347
     18 C         139.1775  140.4224  169.7071 C.3     1  UNL1        0.0738
     19 N         139.9017  145.5571  157.1092 N.am    1  UNL1       -0.2794
     20 C         140.9954  145.4770  158.1326 C.2     1  UNL1        0.2495
     21 O         142.3008  146.1755  157.8915 O.2     1  UNL1       -0.2698
     22 H         139.0450  145.0986  157.2675 H       1  UNL1        0.1552
     23 N         138.7156  148.2973  156.8184 N.pl3   1  UNL1       -0.3560
     24 C         139.5203  147.7057  155.6993 C.ar    1  UNL1        0.0552
     25 C         139.7320  148.4842  154.4347 C.ar    1  UNL1        0.0153
     26 C         140.5367  147.8926  153.3156 C.ar    1  UNL1        0.0013
     27 C         141.1297  146.5226  153.4610 C.ar    1  UNL1        0.0014
     28 C         140.9181  145.7441  154.7255 C.ar    1  UNL1        0.0159
     29 C         140.1134  146.3357  155.8446 C.ar    1  UNL1        0.0636
     30 H         138.3263  149.1965  156.7230 H       1  UNL1        0.1424
     31 H         138.5767  147.7863  157.6484 H       1  UNL1        0.1424
@<TRIPOS>BOND
     1    23    24    1
     2    24    25   ar
     3    25    26   ar
     4    26    27   ar
     5    27    28   ar
     6    28    29   ar
     7    29    19    1
     8    19    20   am
     9    20    21    2
    10    20     1    1
    11     1     2   ar
    12     2     3   ar
    13     3     4   ar
    14     4     7    1
    15     7     8   ar
    16     8     9   ar
    17     9    10   ar
    18    10    14    1
    19    14    15    1
    20    15    16    1
    21    16    17    1
    22    17    18    1
    23    10    11   ar
    24    11    12   ar
    25    12    13    1
    26     4     5   ar
    27     5     6   ar
    28    29    24   ar
    29     6     1   ar
    30    12     7   ar
    31    18    15    1
    32    23    30    1
    33    23    31    1
    34    19    22    1
@<TRIPOS>MOLECULE
*****
 31 34 0 0 0
SMALL
GASTEIGER

@<TRIPOS>ATOM
      1 C         140.6162  139.5811  164.7827 C.ar    1  UNL1        0.0537
      2 C         140.9458  140.6452  163.7781 C.ar    1  UNL1        0.0046
      3 C         141.1259  140.2830  162.3337 C.ar    1  UNL1        0.0017
      4 C         140.9765  138.8568  161.8939 C.ar    1  UNL1        0.0185
      5 C         140.6469  137.7927  162.8984 C.ar    1  UNL1        0.0017
      6 C         140.4668  138.1549  164.3428 C.ar    1  UNL1        0.0046
      7 C         141.1566  138.4946  160.4494 C.ar    1  UNL1        0.0918
      8 N         140.0036  138.6128  159.4971 N.ar    1  UNL1       -0.2433
      9 C         140.1837  138.2507  158.0527 C.ar    1  UNL1        0.0959
     10 C         141.5167  137.7702  157.5606 C.ar    1  UNL1        0.0139
     11 C         142.6696  137.6519  158.5128 C.ar    1  UNL1        0.0115
     12 C         142.4895  138.0141  159.9572 C.ar    1  UNL1        0.0750
     13 CL        143.6425  137.8959  160.9095 Cl      1  UNL1       -0.0807
     14 C         141.6968  137.4080  156.1161 C.3     1  UNL1        0.1007
     15 N         142.3195  136.0950  155.7442 N.3     1  UNL1       -0.2688
     16 C         143.7048  135.6401  155.3918 C.3     1  UNL1        0.0738
     17 C         143.2003  134.2383  155.2182 C.3     1  UNL1        0.0347
     18 C         141.8151  134.6931  155.5705 C.3     1  UNL1        0.0738
     19 N         141.4590  140.7938  166.9203 N.am    1  UNL1       -0.2794
     20 C         140.4361  139.9433  166.2272 C.2     1  UNL1        0.2495
     21 O         139.2332  139.4551  166.9784 O.2     1  UNL1       -0.2698
     22 H         142.2485  141.1143  166.4272 H       1  UNL1        0.1552
     23 N         142.8272  139.1861  169.0518 N.pl3   1  UNL1       -0.3560
     24 C         141.9630  140.3522  169.4305 C.ar    1  UNL1        0.0552
     25 C         141.7829  140.7144  170.8749 C.ar    1  UNL1        0.0153
     26 C         140.9186  141.8805  171.2535 C.ar    1  UNL1        0.0013
     27 C         140.2345  142.6843  170.1878 C.ar    1  UNL1        0.0014
     28 C         140.4147  142.3221  168.7434 C.ar    1  UNL1        0.0159
     29 C         141.2789  141.1560  168.3648 C.ar    1  UNL1        0.0636
     30 H         143.2762  138.6585  169.7513 H       1  UNL1        0.1424
     31 H         142.9454  138.9484  168.1038 H       1  UNL1        0.1424
@<TRIPOS>BOND
     1    23    24    1
     2    24    25   ar
     3    25    26   ar
     4    26    27   ar
     5    27    28   ar
     6    28    29   ar
     7    29    19    1
     8    19    20   am
     9    20    21    2
    10    20     1    1
    11     1     2   ar
    12     2     3   ar
    13     3     4   ar
    14     4     7    1
    15     7     8   ar
    16     8     9   ar
    17     9    10   ar
    18    10    14    1
    19    14    15    1
    20    15    16    1
    21    16    17    1
    22    17    18    1
    23    10    11   ar
    24    11    12   ar
    25    12    13    1
    26     4     5   ar
    27     5     6   ar
    28    29    24   ar
    29     6     1   ar
    30    12     7   ar
    31    18    15    1
    32    23    30    1
    33    23    31    1
    34    19    22    1
@<TRIPOS>MOLECULE
*****
 31 34 0 0 0
SMALL
GASTEIGER

@<TRIPOS>ATOM
      1 C         141.2955  143.0573  163.6420 C.ar    1  UNL1        0.0537
      2 C         140.4158  144.2204  163.2906 C.ar    1  UNL1        0.0046
      3 C         140.3132  144.6798  161.8665 C.ar    1  UNL1        0.0017
      4 C         141.0903  143.9762  160.7936 C.ar    1  UNL1        0.0185
      5 C         141.9700  142.8132  161.1450 C.ar    1  UNL1        0.0017
      6 C         142.0726  142.3537  162.5692 C.ar    1  UNL1        0.0046
      7 C         140.9878  144.4357  159.3694 C.ar    1  UNL1        0.0918
      8 N         141.9415  145.4671  158.8435 N.ar    1  UNL1       -0.2433
      9 C         141.8390  145.9265  157.4193 C.ar    1  UNL1        0.0959
     10 C         140.7827  145.3546  156.5210 C.ar    1  UNL1        0.0139
     11 C         139.8289  144.3231  157.0469 C.ar    1  UNL1        0.0115
     12 C         139.9315  143.8637  158.4710 C.ar    1  UNL1        0.0750
     13 CL        138.9777  142.8323  158.9969 Cl      1  UNL1       -0.0807
     14 C         140.6801  145.8140  155.0967 C.3     1  UNL1        0.1007
     15 N         140.1688  147.1898  154.7875 N.3     1  UNL1       -0.2688
     16 C         139.1392  148.0991  155.3904 C.3     1  UNL1        0.0738
     17 C         139.4456  149.1355  154.3502 C.3     1  UNL1        0.0347
     18 C         140.4750  148.2263  153.7474 C.3     1  UNL1        0.0738
     19 N         142.6489  141.9253  165.5491 N.am    1  UNL1       -0.2794
     20 C         141.3981  142.5979  165.0663 C.2     1  UNL1        0.2495
     21 O         140.2499  142.8110  166.0076 O.2     1  UNL1       -0.2698
     22 H         143.4025  141.7854  164.9313 H       1  UNL1        0.1552
     23 N         141.7715  139.1562  166.2989 N.pl3   1  UNL1       -0.3560
     24 C         142.3128  140.0814  167.3483 C.ar    1  UNL1        0.0552
     25 C         142.4154  139.6220  168.7725 C.ar    1  UNL1        0.0153
     26 C         142.9566  140.5472  169.8218 C.ar    1  UNL1        0.0013
     27 C         143.3953  141.9317  169.4469 C.ar    1  UNL1        0.0014
     28 C         143.2927  142.3911  168.0227 C.ar    1  UNL1        0.0159
     29 C         142.7514  141.4659  166.9734 C.ar    1  UNL1        0.0636
     30 H         141.4836  138.2475  166.5450 H       1  UNL1        0.1424
     31 H         141.7042  139.4577  165.3642 H       1  UNL1        0.1424
@<TRIPOS>BOND
     1    23    24    1
     2    24    25   ar
     3    25    26   ar
     4    26    27   ar
     5    27    28   ar
     6    28    29   ar
     7    29    19    1
     8    19    20   am
     9    20    21    2
    10    20     1    1
    11     1     2   ar
    12     2     3   ar
    13     3     4   ar
    14     4     7    1
    15     7     8   ar
    16     8     9   ar
    17     9    10   ar
    18    10    14    1
    19    14    15    1
    20    15    16    1
    21    16    17    1
    22    17    18    1
    23    10    11   ar
    24    11    12   ar
    25    12    13    1
    26     4     5   ar
    27     5     6   ar
    28    29    24   ar
    29     6     1   ar
    30    12     7   ar
    31    18    15    1
    32    23    30    1
    33    23    31    1
    34    19    22    1
@<TRIPOS>MOLECULE
*****
 31 34 0 0 0
SMALL
GASTEIGER

@<TRIPOS>ATOM
      1 C         141.9699  139.3925  164.6703 C.ar    1  UNL1        0.0537
      2 C         141.7240  137.9775  164.2377 C.ar    1  UNL1        0.0046
      3 C         141.5504  137.6575  162.7826 C.ar    1  UNL1        0.0017
      4 C         141.6226  138.7525  161.7601 C.ar    1  UNL1        0.0185
      5 C         141.8685  140.1676  162.1927 C.ar    1  UNL1        0.0017
      6 C         142.0422  140.4876  163.6478 C.ar    1  UNL1        0.0046
      7 C         141.4489  138.4326  160.3049 C.ar    1  UNL1        0.0918
      8 N         142.6219  137.9669  159.4942 N.ar    1  UNL1       -0.2433
      9 C         142.4483  137.6469  158.0391 C.ar    1  UNL1        0.0959
     10 C         141.1017  137.7926  157.3947 C.ar    1  UNL1        0.0139
     11 C         139.9287  138.2583  158.2053 C.ar    1  UNL1        0.0115
     12 C         140.1023  138.5783  159.6605 C.ar    1  UNL1        0.0750
     13 CL        138.9293  139.0439  160.4712 Cl      1  UNL1       -0.0807
     14 C         140.9281  137.4727  155.9395 C.3     1  UNL1        0.1007
     15 N         141.6463  136.3011  155.3382 N.3     1  UNL1       -0.2688
     16 C         141.6952  134.8285  155.6198 C.3     1  UNL1        0.0738
     17 C         142.6622  134.6442  154.4880 C.3     1  UNL1        0.0347
     18 C         142.6133  136.1167  154.2065 C.3     1  UNL1        0.0738
     19 N         141.4386  140.8940  166.7230 N.am    1  UNL1       -0.2794
     20 C         142.1436  139.7125  166.1255 C.2     1  UNL1        0.2495
     21 O         143.0222  138.8509  166.9832 O.2     1  UNL1       -0.2698
     22 H         140.8620  141.4595  166.1600 H       1  UNL1        0.1552
     23 N         139.4982  139.8118  168.7388 N.pl3   1  UNL1       -0.3560
     24 C         140.6421  140.6729  169.1861 C.ar    1  UNL1        0.0552
     25 C         140.8158  140.9929  170.6412 C.ar    1  UNL1        0.0153
     26 C         141.9597  141.8539  171.0884 C.ar    1  UNL1        0.0013
     27 C         142.9299  142.3950  170.0805 C.ar    1  UNL1        0.0014
     28 C         142.7562  142.0750  168.6254 C.ar    1  UNL1        0.0159
     29 C         141.6123  141.2140  168.1782 C.ar    1  UNL1        0.0636
     30 H         138.8614  139.4567  169.4003 H       1  UNL1        0.1424
     31 H         139.3842  139.6018  167.7838 H       1  UNL1        0.1424
@<TRIPOS>BOND
     1    23    24    1
     2    24    25   ar
     3    25    26   ar
     4    26    27   ar
     5    27    28   ar
     6    28    29   ar
     7    29    19    1
     8    19    20   am
     9    20    21    2
    10    20     1    1
    11     1     2   ar
    12     2     3   ar
    13     3     4   ar
    14     4     7    1
    15     7     8   ar
    16     8     9   ar
    17     9    10   ar
    18    10    14    1
    19    14    15    1
    20    15    16    1
    21    16    17    1
    22    17    18    1
    23    10    11   ar
    24    11    12   ar
    25    12    13    1
    26     4     5   ar
    27     5     6   ar
    28    29    24   ar
    29     6     1   ar
    30    12     7   ar
    31    18    15    1
    32    23    30    1
    33    23    31    1
    34    19    22    1
@<TRIPOS>MOLECULE
*****
 31 34 0 0 0
SMALL
GASTEIGER

@<TRIPOS>ATOM
      1 C         141.0726  139.7410  164.4446 C.ar    1  UNL1        0.0537
      2 C         141.1195  138.2919  164.0603 C.ar    1  UNL1        0.0046
      3 C         141.1422  137.9002  162.6125 C.ar    1  UNL1        0.0017
      4 C         141.1180  138.9577  161.5491 C.ar    1  UNL1        0.0185
      5 C         141.0711  140.4069  161.9334 C.ar    1  UNL1        0.0017
      6 C         141.0484  140.7986  163.3811 C.ar    1  UNL1        0.0046
      7 C         141.1407  138.5661  160.1012 C.ar    1  UNL1        0.0918
      8 N         139.8544  138.4208  159.3433 N.ar    1  UNL1       -0.2433
      9 C         139.8770  138.0292  157.8956 C.ar    1  UNL1        0.0959
     10 C         141.1859  137.7829  157.2057 C.ar    1  UNL1        0.0139
     11 C         142.4722  137.9283  157.9635 C.ar    1  UNL1        0.0115
     12 C         142.4496  138.3199  159.4113 C.ar    1  UNL1        0.0750
     13 CL        143.7359  138.4652  160.1691 Cl      1  UNL1       -0.0807
     14 C         141.2086  137.3913  155.7578 C.3     1  UNL1        0.1007
     15 N         141.8623  136.1081  155.3381 N.3     1  UNL1       -0.2688
     16 C         141.3808  134.7166  155.0516 C.3     1  UNL1        0.0738
     17 C         142.7867  134.2935  154.7446 C.3     1  UNL1        0.0347
     18 C         143.2682  135.6848  155.0311 C.3     1  UNL1        0.0738
     19 N         140.1830  141.2685  166.3487 N.am    1  UNL1       -0.2794
     20 C         141.0499  140.1327  165.8924 C.2     1  UNL1        0.2495
     21 O         141.8943  139.3884  166.8840 O.2     1  UNL1       -0.2698
     22 H         139.6288  141.7570  165.6978 H       1  UNL1        0.1552
     23 N         138.9072  139.4583  168.3724 N.pl3   1  UNL1       -0.3560
     24 C         139.5224  140.7550  168.8084 C.ar    1  UNL1        0.0552
     25 C         139.4998  141.1467  170.2561 C.ar    1  UNL1        0.0153
     26 C         140.1150  142.4434  170.6920 C.ar    1  UNL1        0.0013
     27 C         140.7528  143.3485  169.6802 C.ar    1  UNL1        0.0014
     28 C         140.7755  142.9568  168.2324 C.ar    1  UNL1        0.0159
     29 C         140.1603  141.6601  167.7965 C.ar    1  UNL1        0.0636
     30 H         138.4886  138.8643  169.0366 H       1  UNL1        0.1424
     31 H         138.9221  139.2013  167.4222 H       1  UNL1        0.1424
@<TRIPOS>BOND
     1    23    24    1
     2    24    25   ar
     3    25    26   ar
     4    26    27   ar
     5    27    28   ar
     6    28    29   ar
     7    29    19    1
     8    19    20   am
     9    20    21    2
    10    20     1    1
    11     1     2   ar
    12     2     3   ar
    13     3     4   ar
    14     4     7    1
    15     7     8   ar
    16     8     9   ar
    17     9    10   ar
    18    10    14    1
    19    14    15    1
    20    15    16    1
    21    16    17    1
    22    17    18    1
    23    10    11   ar
    24    11    12   ar
    25    12    13    1
    26     4     5   ar
    27     5     6   ar
    28    29    24   ar
    29     6     1   ar
    30    12     7   ar
    31    18    15    1
    32    23    30    1
    33    23    31    1
    34    19    22    1
@<TRIPOS>MOLECULE
*****
 31 34 0 0 0
SMALL
GASTEIGER

@<TRIPOS>ATOM
      1 C         138.3970  141.3126  159.2079 C.ar    1  UNL1        0.0537
      2 C         138.9452  142.6469  159.6190 C.ar    1  UNL1        0.0046
      3 C         139.5296  142.8279  160.9886 C.ar    1  UNL1        0.0017
      4 C         139.5657  141.6746  161.9470 C.ar    1  UNL1        0.0185
      5 C         139.0175  140.3403  161.5358 C.ar    1  UNL1        0.0017
      6 C         138.4331  140.1593  160.1662 C.ar    1  UNL1        0.0046
      7 C         140.1501  141.8555  163.3166 C.ar    1  UNL1        0.0918
      8 N         141.5711  141.4566  163.5844 N.ar    1  UNL1       -0.2433
      9 C         142.1554  141.6375  164.9540 C.ar    1  UNL1        0.0959
     10 C         141.3189  142.2174  166.0557 C.ar    1  UNL1        0.0139
     11 C         139.8979  142.6163  165.7879 C.ar    1  UNL1        0.0115
     12 C         139.3135  142.4354  164.4183 C.ar    1  UNL1        0.0750
     13 CL        137.8926  142.8344  164.1505 Cl      1  UNL1       -0.0807
     14 C         141.9033  142.3983  167.4253 C.3     1  UNL1        0.1007
     15 N         141.0042  142.4353  168.6254 N.3     1  UNL1       -0.2688
     16 C         140.2604  141.4074  169.4257 C.3     1  UNL1        0.0738
     17 C         139.7327  142.4877  170.3226 C.3     1  UNL1        0.0347
     18 C         140.4764  143.5155  169.5225 C.3     1  UNL1        0.0738
     19 N         136.9471  142.2032  157.2445 N.am    1  UNL1       -0.2794
     20 C         137.8126  141.1316  157.8382 C.2     1  UNL1        0.2495
     21 O         138.0938  139.8791  157.0623 O.2     1  UNL1       -0.2698
     22 H         136.7625  143.0253  157.7538 H       1  UNL1        0.1552
     23 N         134.8614  140.0998  156.7694 N.pl3   1  UNL1       -0.3560
     24 C         135.3199  140.9706  155.6374 C.ar    1  UNL1        0.0552
     25 C         134.7356  140.7897  154.2678 C.ar    1  UNL1        0.0153
     26 C         135.1940  141.6605  153.1358 C.ar    1  UNL1        0.0013
     27 C         136.2368  142.7122  153.3733 C.ar    1  UNL1        0.0014
     28 C         136.8211  142.8931  154.7429 C.ar    1  UNL1        0.0159
     29 C         136.3627  142.0223  155.8749 C.ar    1  UNL1        0.0636
     30 H         134.1770  139.4095  156.6135 H       1  UNL1        0.1424
     31 H         135.2449  140.2185  157.6683 H       1  UNL1        0.1424
@<TRIPOS>BOND
     1    23    24    1
     2    24    25   ar
     3    25    26   ar
     4    26    27   ar
     5    27    28   ar
     6    28    29   ar
     7    29    19    1
     8    19    20   am
     9    20    21    2
    10    20     1    1
    11     1     2   ar
    12     2     3   ar
    13     3     4   ar
    14     4     7    1
    15     7     8   ar
    16     8     9   ar
    17     9    10   ar
    18    10    14    1
    19    14    15    1
    20    15    16    1
    21    16    17    1
    22    17    18    1
    23    10    11   ar
    24    11    12   ar
    25    12    13    1
    26     4     5   ar
    27     5     6   ar
    28    29    24   ar
    29     6     1   ar
    30    12     7   ar
    31    18    15    1
    32    23    30    1
    33    23    31    1
    34    19    22    1
@<TRIPOS>MOLECULE
*****
 31 34 0 0 0
SMALL
GASTEIGER

@<TRIPOS>ATOM
      1 C         139.9222  141.8003  164.6370 C.ar    1  UNL1        0.0537
      2 C         138.4707  141.8344  164.2603 C.ar    1  UNL1        0.0046
      3 C         138.0692  141.7808  162.8161 C.ar    1  UNL1        0.0017
      4 C         139.1192  141.6929  161.7485 C.ar    1  UNL1        0.0185
      5 C         140.5707  141.6588  162.1252 C.ar    1  UNL1        0.0017
      6 C         140.9722  141.7124  163.5695 C.ar    1  UNL1        0.0046
      7 C         138.7177  141.6393  160.3042 C.ar    1  UNL1        0.0918
      8 N         138.5702  142.9089  159.5191 N.ar    1  UNL1       -0.2433
      9 C         138.1688  142.8552  158.0749 C.ar    1  UNL1        0.0959
     10 C         137.9149  141.5320  157.4157 C.ar    1  UNL1        0.0139
     11 C         138.0624  140.2624  158.2008 C.ar    1  UNL1        0.0115
     12 C         138.4638  140.3160  159.6450 C.ar    1  UNL1        0.0750
     13 CL        138.6114  139.0464  160.4301 Cl      1  UNL1       -0.0807
     14 C         137.5134  141.4783  155.9714 C.3     1  UNL1        0.1007
     15 N         136.2416  140.7909  155.5715 N.3     1  UNL1       -0.2688
     16 C         135.7815  140.0306  154.3631 C.3     1  UNL1        0.0738
     17 C         134.4429  139.8187  155.0061 C.3     1  UNL1        0.0347
     18 C         134.9030  140.5790  156.2144 C.3     1  UNL1        0.0738
     19 N         140.8906  140.6357  166.7479 N.am    1  UNL1       -0.2794
     20 C         140.3237  141.8540  166.0813 C.2     1  UNL1        0.2495
     21 O         140.1581  143.1259  166.8590 O.2     1  UNL1       -0.2698
     22 H         140.9993  139.8009  166.2375 H       1  UNL1        0.1552
     23 N         138.9776  139.7241  168.8715 N.pl3   1  UNL1       -0.3560
     24 C         140.3356  140.2336  169.2540 C.ar    1  UNL1        0.0552
     25 C         140.7371  140.2873  170.6983 C.ar    1  UNL1        0.0153
     26 C         142.0951  140.7968  171.0808 C.ar    1  UNL1        0.0013
     27 C         143.0516  141.2526  170.0190 C.ar    1  UNL1        0.0014
     28 C         142.6501  141.1989  168.5748 C.ar    1  UNL1        0.0159
     29 C         141.2921  140.6894  168.1923 C.ar    1  UNL1        0.0636
     30 H         138.3499  139.4250  169.5684 H       1  UNL1        0.1424
     31 H         138.7141  139.6889  167.9236 H       1  UNL1        0.1424
@<TRIPOS>BOND
     1    23    24    1
     2    24    25   ar
     3    25    26   ar
     4    26    27   ar
     5    27    28   ar
     6    28    29   ar
     7    29    19    1
     8    19    20   am
     9    20    21    2
    10    20     1    1
    11     1     2   ar
    12     2     3   ar
    13     3     4   ar
    14     4     7    1
    15     7     8   ar
    16     8     9   ar
    17     9    10   ar
    18    10    14    1
    19    14    15    1
    20    15    16    1
    21    16    17    1
    22    17    18    1
    23    10    11   ar
    24    11    12   ar
    25    12    13    1
    26     4     5   ar
    27     5     6   ar
    28    29    24   ar
    29     6     1   ar
    30    12     7   ar
    31    18    15    1
    32    23    30    1
    33    23    31    1
    34    19    22    1
@<TRIPOS>MOLECULE
*****
 31 34 0 0 0
SMALL
GASTEIGER

@<TRIPOS>ATOM
      1 C         142.6579  139.8162  164.9060 C.ar    1  UNL1        0.0537
      2 C         143.8694  139.1469  164.3277 C.ar    1  UNL1        0.0046
      3 C         143.9743  138.9357  162.8464 C.ar    1  UNL1        0.0017
      4 C         142.8677  139.3939  161.9434 C.ar    1  UNL1        0.0185
      5 C         141.6562  140.0632  162.5216 C.ar    1  UNL1        0.0017
      6 C         141.5514  140.2744  164.0029 C.ar    1  UNL1        0.0046
      7 C         142.9726  139.1827  160.4620 C.ar    1  UNL1        0.0918
      8 N         142.4975  137.8972  159.8522 N.ar    1  UNL1       -0.2433
      9 C         142.6023  137.6860  158.3708 C.ar    1  UNL1        0.0959
     10 C         143.1822  138.7603  157.4993 C.ar    1  UNL1        0.0139
     11 C         143.6573  140.0458  158.1091 C.ar    1  UNL1        0.0115
     12 C         143.5524  140.2570  159.5904 C.ar    1  UNL1        0.0750
     13 CL        144.0275  141.5425  160.2002 Cl      1  UNL1       -0.0807
     14 C         143.2871  138.5492  156.0179 C.3     1  UNL1        0.1007
     15 N         143.1772  137.1661  155.4479 N.3     1  UNL1       -0.2688
     16 C         142.1541  136.4336  154.6311 C.3     1  UNL1        0.0738
     17 C         143.0218  135.2101  154.6417 C.3     1  UNL1        0.0347
     18 C         144.0447  135.9425  155.4584 C.3     1  UNL1        0.0738
     19 N         141.7174  141.1497  166.9277 N.am    1  UNL1       -0.2794
     20 C         142.5531  140.0274  166.3874 C.2     1  UNL1        0.2495
     21 O         143.2839  139.1161  167.3284 O.2     1  UNL1       -0.2698
     22 H         141.2378  141.7478  166.3101 H       1  UNL1        0.1552
     23 N         139.5703  139.7572  168.4932 N.pl3   1  UNL1       -0.3560
     24 C         140.5390  140.6646  169.1918 C.ar    1  UNL1        0.0552
     25 C         140.4342  140.8758  170.6731 C.ar    1  UNL1        0.0153
     26 C         141.4030  141.7832  171.3718 C.ar    1  UNL1        0.0013
     27 C         142.4765  142.4795  170.5891 C.ar    1  UNL1        0.0014
     28 C         142.5813  142.2683  169.1078 C.ar    1  UNL1        0.0159
     29 C         141.6126  141.3609  168.4091 C.ar    1  UNL1        0.0636
     30 H         138.8656  139.3002  169.0069 H       1  UNL1        0.1424
     31 H         139.6391  139.6186  167.5209 H       1  UNL1        0.1424
@<TRIPOS>BOND
     1    23    24    1
     2    24    25   ar
     3    25    26   ar
     4    26    27   ar
     5    27    28   ar
     6    28    29   ar
     7    29    19    1
     8    19    20   am
     9    20    21    2
    10    20     1    1
    11     1     2   ar
    12     2     3   ar
    13     3     4   ar
    14     4     7    1
    15     7     8   ar
    16     8     9   ar
    17     9    10   ar
    18    10    14    1
    19    14    15    1
    20    15    16    1
    21    16    17    1
    22    17    18    1
    23    10    11   ar
    24    11    12   ar
    25    12    13    1
    26     4     5   ar
    27     5     6   ar
    28    29    24   ar
    29     6     1   ar
    30    12     7   ar
    31    18    15    1
    32    23    30    1
    33    23    31    1
    34    19    22    1
