@<TRIPOS>MOLECULE
*****
 25 26 0 0 0
SMALL
GASTEIGER

@<TRIPOS>ATOM
      1 C         139.1120  139.9292  165.3043 C.ar    1  UNL1        0.1324
      2 N         138.1099  138.8877  165.7054 N.ar    1  UNL1       -0.1993
      3 C         137.8640  138.6034  167.1576 C.ar    1  UNL1        0.2148
      4 N         136.8619  137.5618  167.5587 N.pl3   1  UNL1       -0.3274
      5 N         138.6202  139.3607  168.2086 N.ar    1  UNL1       -0.2139
      6 C         139.6224  140.4023  167.8074 C.ar    1  UNL1        0.0865
      7 C         140.3786  141.1596  168.8584 C.ar    1  UNL1        0.0193
      8 C         141.3806  142.2011  168.4573 C.ar    1  UNL1        0.0012
      9 C         141.6265  142.4854  167.0051 C.ar    1  UNL1       -0.0041
     10 C         140.8703  141.7281  165.9541 C.ar    1  UNL1       -0.0177
     11 C         141.1162  142.0124  164.5020 C.3     1  UNL1        0.0312
     12 C         139.8682  140.6866  166.3553 C.ar    1  UNL1        0.0452
     13 H         136.3656  137.0647  166.8689 H       1  UNL1        0.1452
     14 H         136.7005  137.3752  168.5118 H       1  UNL1        0.1452
     15 N         139.3578  140.2135  163.8521 N.pl3   1  UNL1       -0.3195
     16 H         140.2672  140.1373  163.4827 H       1  UNL1        0.1481
     17 C         138.2182  140.6138  162.9628 C.3     1  UNL1        0.0729
     18 C         137.3380  141.7668  163.3447 C.3     1  UNL1        0.0196
     19 C         137.9053  143.1540  163.4098 C.3     1  UNL1        0.0017
     20 C         138.7494  144.8396  165.1976 C.3     1  UNL1        0.0000
     21 C         137.6425  144.0163  164.6087 C.3     1  UNL1        0.0001
     22 C         137.9586  139.8611  161.6915 C.3     1  UNL1        0.0512
     23 C         137.7680  138.3737  161.7262 C.3     1  UNL1        0.1389
     24 O         138.5040  137.5467  162.7382 O.3     1  UNL1       -0.3819
     25 H         139.4560  137.5841  162.5558 H       1  UNL1        0.2104
@<TRIPOS>BOND
     1    20    21    1
     2    21    19    1
     3    19    18    1
     4    17    18    1
     5    17    22    1
     6    22    23    1
     7    23    24    1
     8    17    15    1
     9    15     1    1
    10     1     2   ar
    11     2     3   ar
    12     3     4    1
    13     3     5   ar
    14     5     6   ar
    15     6     7   ar
    16     7     8   ar
    17     8     9   ar
    18     9    10   ar
    19    10    11    1
    20    10    12   ar
    21    12     1   ar
    22    12     6   ar
    23    24    25    1
    24    15    16    1
    25     4    13    1
    26     4    14    1
@<TRIPOS>MOLECULE
*****
 25 26 0 0 0
SMALL
GASTEIGER

@<TRIPOS>ATOM
      1 C         140.1201  140.1492  167.8017 C.ar    1  UNL1        0.1324
      2 N         138.8936  139.6766  168.5243 N.ar    1  UNL1       -0.1993
      3 C         138.6873  140.0360  169.9660 C.ar    1  UNL1        0.2148
      4 N         137.4607  139.5633  170.6886 N.pl3   1  UNL1       -0.3274
      5 N         139.7074  140.8680  170.6849 N.ar    1  UNL1       -0.2139
      6 C         140.9340  141.3406  169.9622 C.ar    1  UNL1        0.0865
      7 C         141.9542  142.1727  170.6812 C.ar    1  UNL1        0.0193
      8 C         143.1807  142.6453  169.9585 C.ar    1  UNL1        0.0012
      9 C         143.3870  142.2859  168.5169 C.ar    1  UNL1       -0.0041
     10 C         142.3668  141.4539  167.7979 C.ar    1  UNL1       -0.0177
     11 C         142.5731  141.0945  166.3563 C.3     1  UNL1        0.0312
     12 C         141.1403  140.9812  168.5206 C.ar    1  UNL1        0.0452
     13 H         136.7911  139.0172  170.2167 H       1  UNL1        0.1452
     14 H         137.3253  139.7992  171.6348 H       1  UNL1        0.1452
     15 N         140.3264  139.7898  166.3600 N.pl3   1  UNL1       -0.3195
     16 H         141.2300  139.8175  165.9703 H       1  UNL1        0.1481
     17 C         139.1559  139.3882  165.5123 C.3     1  UNL1        0.0729
     18 C         138.9936  137.9591  165.0864 C.3     1  UNL1        0.0196
     19 C         139.6655  137.4674  163.8386 C.3     1  UNL1        0.0017
     20 C         142.0813  137.9636  163.0214 C.3     1  UNL1        0.0000
     21 C         141.1318  137.1513  163.8512 C.3     1  UNL1        0.0001
     22 C         138.1477  140.4157  165.0904 C.3     1  UNL1        0.0512
     23 C         137.9906  140.7605  163.6391 C.3     1  UNL1        0.1389
     24 O         136.6722  141.2576  163.1249 O.3     1  UNL1       -0.3819
     25 H         136.0103  140.5521  163.1967 H       1  UNL1        0.2104
@<TRIPOS>BOND
     1    20    21    1
     2    21    19    1
     3    19    18    1
     4    17    18    1
     5    17    22    1
     6    22    23    1
     7    23    24    1
     8    17    15    1
     9    15     1    1
    10     1     2   ar
    11     2     3   ar
    12     3     4    1
    13     3     5   ar
    14     5     6   ar
    15     6     7   ar
    16     7     8   ar
    17     8     9   ar
    18     9    10   ar
    19    10    11    1
    20    10    12   ar
    21    12     1   ar
    22    12     6   ar
    23    24    25    1
    24    15    16    1
    25     4    13    1
    26     4    14    1
@<TRIPOS>MOLECULE
*****
 25 26 0 0 0
SMALL
GASTEIGER

@<TRIPOS>ATOM
      1 C         140.1364  140.1152  167.9162 C.ar    1  UNL1        0.1324
      2 N         138.8994  139.6644  168.6347 N.ar    1  UNL1       -0.1993
      3 C         138.6665  140.0765  170.0581 C.ar    1  UNL1        0.2148
      4 N         137.4294  139.6257  170.7767 N.pl3   1  UNL1       -0.3274
      5 N         139.6708  140.9395  170.7629 N.ar    1  UNL1       -0.2139
      6 C         140.9079  141.3904  170.0443 C.ar    1  UNL1        0.0865
      7 C         141.9121  142.2534  170.7490 C.ar    1  UNL1        0.0193
      8 C         143.1492  142.7042  170.0304 C.ar    1  UNL1        0.0012
      9 C         143.3820  142.2920  168.6071 C.ar    1  UNL1       -0.0041
     10 C         142.3778  141.4291  167.9023 C.ar    1  UNL1       -0.0177
     11 C         142.6106  141.0169  166.4790 C.3     1  UNL1        0.0312
     12 C         141.1407  140.9782  168.6209 C.ar    1  UNL1        0.0452
     13 H         136.7703  139.0593  170.3141 H       1  UNL1        0.1452
     14 H         137.2766  139.8962  171.7109 H       1  UNL1        0.1452
     15 N         140.3692  139.7030  166.4928 N.pl3   1  UNL1       -0.3195
     16 H         141.2825  139.5118  166.1788 H       1  UNL1        0.1481
     17 C         139.2106  139.5822  165.5479 C.3     1  UNL1        0.0729
     18 C         138.5326  140.8163  165.0309 C.3     1  UNL1        0.0196
     19 C         139.2485  141.7189  164.0702 C.3     1  UNL1        0.0017
     20 C         139.7999  143.4041  165.9691 C.3     1  UNL1        0.0000
     21 C         140.0447  142.8813  164.5846 C.3     1  UNL1        0.0001
     22 C         138.7300  138.2273  165.1199 C.3     1  UNL1        0.0512
     23 C         138.1170  137.2971  166.1243 C.3     1  UNL1        0.1389
     24 O         137.1926  137.8335  167.1768 O.3     1  UNL1       -0.3819
     25 H         137.6868  138.4156  167.7750 H       1  UNL1        0.2104
@<TRIPOS>BOND
     1    20    21    1
     2    21    19    1
     3    19    18    1
     4    17    18    1
     5    17    22    1
     6    22    23    1
     7    23    24    1
     8    17    15    1
     9    15     1    1
    10     1     2   ar
    11     2     3   ar
    12     3     4    1
    13     3     5   ar
    14     5     6   ar
    15     6     7   ar
    16     7     8   ar
    17     8     9   ar
    18     9    10   ar
    19    10    11    1
    20    10    12   ar
    21    12     1   ar
    22    12     6   ar
    23    24    25    1
    24    15    16    1
    25     4    13    1
    26     4    14    1
@<TRIPOS>MOLECULE
*****
 25 26 0 0 0
SMALL
GASTEIGER

@<TRIPOS>ATOM
      1 C         139.2017  140.5030  164.6815 C.ar    1  UNL1        0.1324
      2 N         139.6876  141.4189  163.5976 N.ar    1  UNL1       -0.1993
      3 C         140.5004  142.6301  163.9476 C.ar    1  UNL1        0.2148
      4 N         140.9864  143.5461  162.8637 N.pl3   1  UNL1       -0.3274
      5 N         140.8273  142.9252  165.3815 N.ar    1  UNL1       -0.2139
      6 C         140.3413  142.0092  166.4654 C.ar    1  UNL1        0.0865
      7 C         140.6682  142.3044  167.8993 C.ar    1  UNL1        0.0193
      8 C         140.1822  141.3884  168.9832 C.ar    1  UNL1        0.0012
      9 C         139.3694  140.1773  168.6332 C.ar    1  UNL1       -0.0041
     10 C         139.0426  139.8821  167.1993 C.ar    1  UNL1       -0.0177
     11 C         138.2298  138.6710  166.8493 C.3     1  UNL1        0.0312
     12 C         139.5285  140.7981  166.1154 C.ar    1  UNL1        0.0452
     13 H         140.7719  143.3523  161.9226 H       1  UNL1        0.1452
     14 H         141.5199  144.3410  163.0934 H       1  UNL1        0.1452
     15 N         138.3889  139.2918  164.3315 N.pl3   1  UNL1       -0.3195
     16 H         137.5816  139.0738  164.8511 H       1  UNL1        0.1481
     17 C         138.8061  138.4129  163.1899 C.3     1  UNL1        0.0729
     18 C         140.0760  137.6196  163.2793 C.3     1  UNL1        0.0196
     19 C         140.7751  137.4692  164.5980 C.3     1  UNL1        0.0017
     20 C         142.4750  138.7491  166.0886 C.3     1  UNL1        0.0000
     21 C         142.1371  138.0653  164.7970 C.3     1  UNL1        0.0001
     22 C         137.9534  138.3272  161.9588 C.3     1  UNL1        0.0512
     23 C         137.5720  139.5769  161.2221 C.3     1  UNL1        0.1389
     24 O         137.0634  140.7679  161.9788 O.3     1  UNL1       -0.3819
     25 H         136.2095  140.5521  162.3854 H       1  UNL1        0.2104
@<TRIPOS>BOND
     1    20    21    1
     2    21    19    1
     3    19    18    1
     4    17    18    1
     5    17    22    1
     6    22    23    1
     7    23    24    1
     8    17    15    1
     9    15     1    1
    10     1     2   ar
    11     2     3   ar
    12     3     4    1
    13     3     5   ar
    14     5     6   ar
    15     6     7   ar
    16     7     8   ar
    17     8     9   ar
    18     9    10   ar
    19    10    11    1
    20    10    12   ar
    21    12     1   ar
    22    12     6   ar
    23    24    25    1
    24    15    16    1
    25     4    13    1
    26     4    14    1
@<TRIPOS>MOLECULE
*****
 25 26 0 0 0
SMALL
GASTEIGER

@<TRIPOS>ATOM
      1 C         139.1798  140.2194  165.9318 C.ar    1  UNL1        0.1324
      2 N         138.1952  139.0960  166.0670 N.ar    1  UNL1       -0.1993
      3 C         137.7754  138.6262  167.4283 C.ar    1  UNL1        0.2148
      4 N         136.7907  137.5027  167.5634 N.pl3   1  UNL1       -0.3274
      5 N         138.3403  139.2799  168.6545 N.ar    1  UNL1       -0.2139
      6 C         139.3251  140.4034  168.5194 C.ar    1  UNL1        0.0865
      7 C         139.8900  141.0571  169.7455 C.ar    1  UNL1        0.0193
      8 C         140.8746  142.1805  169.6104 C.ar    1  UNL1        0.0012
      9 C         141.2944  142.6503  168.2491 C.ar    1  UNL1       -0.0041
     10 C         140.7295  141.9966  167.0229 C.ar    1  UNL1       -0.0177
     11 C         141.1492  142.4663  165.6616 C.3     1  UNL1        0.0312
     12 C         139.7448  140.8732  167.1580 C.ar    1  UNL1        0.0452
     13 H         136.4199  137.0737  166.7586 H       1  UNL1        0.1452
     14 H         136.5152  137.1944  168.4569 H       1  UNL1        0.1452
     15 N         139.5996  140.6891  164.5705 N.pl3   1  UNL1       -0.3195
     16 H         139.8208  141.6371  164.4235 H       1  UNL1        0.1481
     17 C         139.6823  139.7145  163.4333 C.3     1  UNL1        0.0729
     18 C         140.9280  138.9042  163.2291 C.3     1  UNL1        0.0196
     19 C         141.5835  138.2292  164.3974 C.3     1  UNL1        0.0017
     20 C         142.7715  138.9409  166.5956 C.3     1  UNL1        0.0000
     21 C         142.7339  138.8904  165.0969 C.3     1  UNL1        0.0001
     22 C         138.5193  139.5502  162.5003 C.3     1  UNL1        0.0512
     23 C         137.6735  140.7354  162.1401 C.3     1  UNL1        0.1389
     24 O         136.6742  141.2700  163.1227 O.3     1  UNL1       -0.3819
     25 H         135.9773  140.6108  163.2662 H       1  UNL1        0.2104
@<TRIPOS>BOND
     1    20    21    1
     2    21    19    1
     3    19    18    1
     4    17    18    1
     5    17    22    1
     6    22    23    1
     7    23    24    1
     8    17    15    1
     9    15     1    1
    10     1     2   ar
    11     2     3   ar
    12     3     4    1
    13     3     5   ar
    14     5     6   ar
    15     6     7   ar
    16     7     8   ar
    17     8     9   ar
    18     9    10   ar
    19    10    11    1
    20    10    12   ar
    21    12     1   ar
    22    12     6   ar
    23    24    25    1
    24    15    16    1
    25     4    13    1
    26     4    14    1
@<TRIPOS>MOLECULE
*****
 25 26 0 0 0
SMALL
GASTEIGER

@<TRIPOS>ATOM
      1 C         140.0778  140.7251  163.5995 C.ar    1  UNL1        0.1324
      2 N         139.3149  139.6654  162.8612 N.ar    1  UNL1       -0.1993
      3 C         138.0145  140.0043  162.1949 C.ar    1  UNL1        0.2148
      4 N         137.2516  138.9446  161.4565 N.pl3   1  UNL1       -0.3274
      5 N         137.4769  141.4028  162.2668 N.ar    1  UNL1       -0.2139
      6 C         138.2398  142.4625  163.0052 C.ar    1  UNL1        0.0865
      7 C         137.7023  143.8610  163.0771 C.ar    1  UNL1        0.0193
      8 C         138.4652  144.9206  163.8154 C.ar    1  UNL1        0.0012
      9 C         139.7656  144.5818  164.4818 C.ar    1  UNL1       -0.0041
     10 C         140.3032  143.1833  164.4098 C.ar    1  UNL1       -0.0177
     11 C         141.6036  142.8444  165.0762 C.3     1  UNL1        0.0312
     12 C         139.5403  142.1237  163.6715 C.ar    1  UNL1        0.0452
     13 H         137.6044  138.0267  161.4093 H       1  UNL1        0.1452
     14 H         136.3981  139.1670  161.0192 H       1  UNL1        0.1452
     15 N         141.3783  140.3862  164.2659 N.pl3   1  UNL1       -0.3195
     16 H         142.2025  140.8572  164.0049 H       1  UNL1        0.1481
     17 C         141.4229  139.3299  165.3299 C.3     1  UNL1        0.0729
     18 C         140.9341  139.6384  166.7140 C.3     1  UNL1        0.0196
     19 C         139.4712  139.8604  166.9607 C.3     1  UNL1        0.0017
     20 C         137.4213  138.2816  167.1963 C.3     1  UNL1        0.0000
     21 C         138.4585  138.9448  166.3393 C.3     1  UNL1        0.0001
     22 C         141.9564  137.9650  165.0097 C.3     1  UNL1        0.0512
     23 C         141.0937  136.9728  164.2878 C.3     1  UNL1        0.1389
     24 O         141.0877  136.9353  162.7883 O.3     1  UNL1       -0.3819
     25 H         140.7085  137.7598  162.4457 H       1  UNL1        0.2104
@<TRIPOS>BOND
     1    20    21    1
     2    21    19    1
     3    19    18    1
     4    17    18    1
     5    17    22    1
     6    22    23    1
     7    23    24    1
     8    17    15    1
     9    15     1    1
    10     1     2   ar
    11     2     3   ar
    12     3     4    1
    13     3     5   ar
    14     5     6   ar
    15     6     7   ar
    16     7     8   ar
    17     8     9   ar
    18     9    10   ar
    19    10    11    1
    20    10    12   ar
    21    12     1   ar
    22    12     6   ar
    23    24    25    1
    24    15    16    1
    25     4    13    1
    26     4    14    1
@<TRIPOS>MOLECULE
*****
 25 26 0 0 0
SMALL
GASTEIGER

@<TRIPOS>ATOM
      1 C         142.0622  140.0158  165.9435 C.ar    1  UNL1        0.1324
      2 N         141.4303  138.6963  165.6127 N.ar    1  UNL1       -0.1993
      3 C         141.9051  137.9143  164.4240 C.ar    1  UNL1        0.2148
      4 N         141.2731  136.5947  164.0932 N.pl3   1  UNL1       -0.3274
      5 N         143.0118  138.4519  163.5660 N.ar    1  UNL1       -0.2139
      6 C         143.6438  139.7715  163.8967 C.ar    1  UNL1        0.0865
      7 C         144.7505  140.3090  163.0387 C.ar    1  UNL1        0.0193
      8 C         145.3824  141.6286  163.3695 C.ar    1  UNL1        0.0012
      9 C         144.9077  142.4105  164.5582 C.ar    1  UNL1       -0.0041
     10 C         143.8010  141.8730  165.4162 C.ar    1  UNL1       -0.0177
     11 C         143.3262  142.6550  166.6050 C.3     1  UNL1        0.0312
     12 C         143.1690  140.5535  165.0855 C.ar    1  UNL1        0.0452
     13 H         140.5467  136.2419  164.6564 H       1  UNL1        0.1452
     14 H         141.5847  136.0815  163.3130 H       1  UNL1        0.1452
     15 N         141.5875  140.7978  167.1322 N.pl3   1  UNL1       -0.3195
     16 H         141.3819  141.7563  167.0407 H       1  UNL1        0.1481
     17 C         141.4260  140.1195  168.4603 C.3     1  UNL1        0.0729
     18 C         140.0630  139.9816  169.0712 C.3     1  UNL1        0.0196
     19 C         139.3497  141.1929  169.5947 C.3     1  UNL1        0.0017
     20 C         140.4139  143.5623  169.5374 C.3     1  UNL1        0.0000
     21 C         140.1241  142.2859  170.2699 C.3     1  UNL1        0.0001
     22 C         142.6275  139.5791  169.1775 C.3     1  UNL1        0.0512
     23 C         143.0688  140.1961  170.4715 C.3     1  UNL1        0.1389
     24 O         143.9526  139.4253  171.4068 O.3     1  UNL1       -0.3819
     25 H         143.4691  138.6575  171.7496 H       1  UNL1        0.2104
@<TRIPOS>BOND
     1    20    21    1
     2    21    19    1
     3    19    18    1
     4    17    18    1
     5    17    22    1
     6    22    23    1
     7    23    24    1
     8    17    15    1
     9    15     1    1
    10     1     2   ar
    11     2     3   ar
    12     3     4    1
    13     3     5   ar
    14     5     6   ar
    15     6     7   ar
    16     7     8   ar
    17     8     9   ar
    18     9    10   ar
    19    10    11    1
    20    10    12   ar
    21    12     1   ar
    22    12     6   ar
    23    24    25    1
    24    15    16    1
    25     4    13    1
    26     4    14    1
@<TRIPOS>MOLECULE
*****
 25 26 0 0 0
SMALL
GASTEIGER

@<TRIPOS>ATOM
      1 C         141.2067  141.1846  164.7302 C.ar    1  UNL1        0.1324
      2 N         140.4066  142.4511  164.6536 N.ar    1  UNL1       -0.1993
      3 C         141.0812  143.7444  164.3038 C.ar    1  UNL1        0.2148
      4 N         140.2810  145.0109  164.2272 N.pl3   1  UNL1       -0.3274
      5 N         142.5558  143.7712  164.0306 N.ar    1  UNL1       -0.2139
      6 C         143.3560  142.5047  164.1072 C.ar    1  UNL1        0.0865
      7 C         144.8306  142.5315  163.8340 C.ar    1  UNL1        0.0193
      8 C         145.6307  141.2651  163.9106 C.ar    1  UNL1        0.0012
      9 C         144.9561  139.9718  164.2604 C.ar    1  UNL1       -0.0041
     10 C         143.4815  139.9450  164.5336 C.ar    1  UNL1       -0.0177
     11 C         142.8069  138.6517  164.8834 C.3     1  UNL1        0.0312
     12 C         142.6814  141.2114  164.4570 C.ar    1  UNL1        0.0452
     13 H         139.3131  144.9933  164.4065 H       1  UNL1        0.1452
     14 H         140.7237  145.8597  163.9976 H       1  UNL1        0.1452
     15 N         140.5321  139.8913  165.0800 N.pl3   1  UNL1       -0.3195
     16 H         140.7078  139.0840  164.5447 H       1  UNL1        0.1481
     17 C         139.5899  139.8281  166.2454 C.3     1  UNL1        0.0729
     18 C         139.9970  140.4004  167.5709 C.3     1  UNL1        0.0196
     19 C         141.1771  139.8326  168.3024 C.3     1  UNL1        0.0017
     20 C         142.6319  141.9747  168.0905 C.3     1  UNL1        0.0000
     21 C         142.5234  140.4809  168.1715 C.3     1  UNL1        0.0001
     22 C         138.2406  139.1925  166.0854 C.3     1  UNL1        0.0512
     23 C         137.5764  138.5370  167.2597 C.3     1  UNL1        0.1389
     24 O         137.2417  137.0756  167.2124 O.3     1  UNL1       -0.3819
     25 H         136.5645  136.9207  166.5355 H       1  UNL1        0.2104
@<TRIPOS>BOND
     1    20    21    1
     2    21    19    1
     3    19    18    1
     4    17    18    1
     5    17    22    1
     6    22    23    1
     7    23    24    1
     8    17    15    1
     9    15     1    1
    10     1     2   ar
    11     2     3   ar
    12     3     4    1
    13     3     5   ar
    14     5     6   ar
    15     6     7   ar
    16     7     8   ar
    17     8     9   ar
    18     9    10   ar
    19    10    11    1
    20    10    12   ar
    21    12     1   ar
    22    12     6   ar
    23    24    25    1
    24    15    16    1
    25     4    13    1
    26     4    14    1
@<TRIPOS>MOLECULE
*****
 25 26 0 0 0
SMALL
GASTEIGER

@<TRIPOS>ATOM
      1 C         141.0157  141.7904  164.0538 C.ar    1  UNL1        0.1324
      2 N         141.3259  141.6321  162.5948 N.ar    1  UNL1       -0.1993
      3 C         140.7991  140.4475  161.8403 C.ar    1  UNL1        0.2148
      4 N         141.1093  140.2893  160.3812 N.pl3   1  UNL1       -0.3274
      5 N         139.9622  139.4212  162.5448 N.ar    1  UNL1       -0.2139
      6 C         139.6521  139.5795  164.0039 C.ar    1  UNL1        0.0865
      7 C         138.8152  138.5532  164.7083 C.ar    1  UNL1        0.0193
      8 C         138.5051  138.7115  166.1673 C.ar    1  UNL1        0.0012
      9 C         139.0318  139.8961  166.9219 C.ar    1  UNL1       -0.0041
     10 C         139.8687  140.9224  166.2174 C.ar    1  UNL1       -0.0177
     11 C         140.3954  142.1069  166.9719 C.3     1  UNL1        0.0312
     12 C         140.1788  140.7641  164.7584 C.ar    1  UNL1        0.0452
     13 H         141.6586  140.9629  159.9189 H       1  UNL1        0.1452
     14 H         140.7636  139.5118  159.8860 H       1  UNL1        0.1452
     15 N         141.5425  142.9750  164.8084 N.pl3   1  UNL1       -0.3195
     16 H         141.9429  142.8527  165.6994 H       1  UNL1        0.1481
     17 C         141.4592  144.3458  164.2053 C.3     1  UNL1        0.0729
     18 C         140.1212  144.9483  163.8943 C.3     1  UNL1        0.0196
     19 C         138.9957  144.8240  164.8782 C.3     1  UNL1        0.0017
     20 C         137.7018  143.2369  163.2791 C.3     1  UNL1        0.0000
     21 C         137.9028  143.8233  164.6450 C.3     1  UNL1        0.0001
     22 C         142.7139  145.1143  163.9132 C.3     1  UNL1        0.0512
     23 C         143.7039  144.5839  162.9190 C.3     1  UNL1        0.1389
     24 O         144.0702  143.1294  162.9283 O.3     1  UNL1       -0.3819
     25 H         144.5383  142.9191  163.7515 H       1  UNL1        0.2104
@<TRIPOS>BOND
     1    20    21    1
     2    21    19    1
     3    19    18    1
     4    17    18    1
     5    17    22    1
     6    22    23    1
     7    23    24    1
     8    17    15    1
     9    15     1    1
    10     1     2   ar
    11     2     3   ar
    12     3     4    1
    13     3     5   ar
    14     5     6   ar
    15     6     7   ar
    16     7     8   ar
    17     8     9   ar
    18     9    10   ar
    19    10    11    1
    20    10    12   ar
    21    12     1   ar
    22    12     6   ar
    23    24    25    1
    24    15    16    1
    25     4    13    1
    26     4    14    1
