@<TRIPOS>MOLECULE
*****
 18 19 0 0 0
SMALL
GASTEIGER

@<TRIPOS>ATOM
      1 C         140.4616  141.8565  167.4024 C.ar    1  UNL1        0.0468
      2 C         139.7797  140.5519  167.1143 C.ar    1  UNL1        0.0160
      3 C         139.0929  139.8047  168.2188 C.ar    1  UNL1        0.0209
      4 C         139.0880  140.3620  169.6114 C.ar    1  UNL1        0.0876
      5 C         139.7699  141.6666  169.8995 C.ar    1  UNL1       -0.0701
      6 O         139.7651  142.2240  171.2921 O.co2   1  UNL1       -0.8718
      7 C         140.4567  142.4138  168.7950 C.ar    1  UNL1       -0.0006
      8 C         142.6253  142.4445  166.0899 C.3     1  UNL1        0.1122
      9 N         141.1484  142.6038  166.2979 N.pl3   1  UNL1       -0.3041
     10 C         140.3582  143.5104  165.4014 C.3     1  UNL1        0.1122
     11 N         138.4013  139.6147  170.7159 N.2     1  UNL1       -0.1478
     12 N         137.1561  138.8292  170.4288 N.2     1  UNL1       -0.1285
     13 C         136.4694  138.0819  171.5333 C.ar    1  UNL1        0.1838
     14 C         135.2192  138.6363  172.1496 C.ar    1  UNL1        0.0406
     15 C         134.5324  137.8891  173.2541 C.ar    1  UNL1        0.0048
     16 C         135.0958  136.5874  173.7423 C.ar    1  UNL1        0.0208
     17 C         136.3459  136.0330  173.1260 C.ar    1  UNL1        0.1006
     18 N         137.0327  136.7803  172.0215 N.ar    1  UNL1       -0.2236
@<TRIPOS>UNITY_ATOM_ATTR
6 1
charge -1
@<TRIPOS>BOND
     1     8     9    1
     2     9    10    1
     3     9     1    1
     4     1     2   ar
     5     2     3   ar
     6     3     4   ar
     7     4    11    1
     8    11    12    2
     9    12    13    1
    10    13    14   ar
    11    14    15   ar
    12    15    16   ar
    13    16    17   ar
    14    17    18   ar
    15     4     5   ar
    16     5     6    1
    17     5     7   ar
    18     7     1   ar
    19    18    13   ar
@<TRIPOS>MOLECULE
*****
 18 19 0 0 0
SMALL
GASTEIGER

@<TRIPOS>ATOM
      1 C         140.4475  140.2337  167.2851 C.ar    1  UNL1        0.0468
      2 C         140.1355  140.3452  168.7480 C.ar    1  UNL1        0.0160
      3 C         141.0860  139.7823  169.7627 C.ar    1  UNL1        0.0209
      4 C         142.3487  139.1079  169.3145 C.ar    1  UNL1        0.0876
      5 C         142.6607  138.9964  167.8516 C.ar    1  UNL1       -0.0701
      6 O         143.9234  138.3220  167.4033 O.co2   1  UNL1       -0.8718
      7 C         141.7101  139.5593  166.8369 C.ar    1  UNL1       -0.0006
      8 C         139.6243  142.2265  165.8357 C.3     1  UNL1        0.1122
      9 N         139.4970  140.7966  166.2704 N.pl3   1  UNL1       -0.3041
     10 C         138.4191  139.9295  165.6904 C.3     1  UNL1        0.1122
     11 N         143.2992  138.5451  170.3292 N.2     1  UNL1       -0.1478
     12 N         143.6265  137.0813  170.3193 N.2     1  UNL1       -0.1285
     13 C         144.5771  136.5184  171.3340 C.ar    1  UNL1        0.1838
     14 C         144.5474  135.0541  171.6582 C.ar    1  UNL1        0.0406
     15 C         145.4980  134.4912  172.6729 C.ar    1  UNL1        0.0048
     16 C         146.4782  135.3926  173.3633 C.ar    1  UNL1        0.0208
     17 C         146.5078  136.8569  173.0391 C.ar    1  UNL1        0.1006
     18 N         145.5573  137.4197  172.0244 N.ar    1  UNL1       -0.2236
@<TRIPOS>UNITY_ATOM_ATTR
6 1
charge -1
@<TRIPOS>BOND
     1     8     9    1
     2     9    10    1
     3     9     1    1
     4     1     2   ar
     5     2     3   ar
     6     3     4   ar
     7     4    11    1
     8    11    12    2
     9    12    13    1
    10    13    14   ar
    11    14    15   ar
    12    15    16   ar
    13    16    17   ar
    14    17    18   ar
    15     4     5   ar
    16     5     6    1
    17     5     7   ar
    18     7     1   ar
    19    18    13   ar
@<TRIPOS>MOLECULE
*****
 18 19 0 0 0
SMALL
GASTEIGER

@<TRIPOS>ATOM
      1 C         141.2331  140.8597  168.1583 C.ar    1  UNL1        0.0468
      2 C         142.5006  141.4423  167.6070 C.ar    1  UNL1        0.0160
      3 C         143.3366  142.3557  168.4536 C.ar    1  UNL1        0.0209
      4 C         142.9051  142.6866  169.8515 C.ar    1  UNL1        0.0876
      5 C         141.6375  142.1041  170.4028 C.ar    1  UNL1       -0.0701
      6 O         141.2059  142.4349  171.8008 O.co2   1  UNL1       -0.8718
      7 C         140.8015  141.1906  169.5562 C.ar    1  UNL1       -0.0006
      8 C         138.9836  139.6400  167.7091 C.3     1  UNL1        0.1122
      9 N         140.3971  139.9463  167.3116 N.pl3   1  UNL1       -0.3041
     10 C         140.9747  139.3392  166.0675 C.3     1  UNL1        0.1122
     11 N         143.7410  143.6000  170.6982 N.2     1  UNL1       -0.1478
     12 N         145.2000  143.7754  170.3972 N.2     1  UNL1       -0.1285
     13 C         146.0360  144.6888  171.2438 C.ar    1  UNL1        0.1838
     14 C         147.3085  144.1860  171.8586 C.ar    1  UNL1        0.0406
     15 C         148.1445  145.0994  172.7052 C.ar    1  UNL1        0.0048
     16 C         147.7079  146.5157  172.9371 C.ar    1  UNL1        0.0208
     17 C         146.4355  147.0184  172.3223 C.ar    1  UNL1        0.1006
     18 N         145.5995  146.1050  171.4757 N.ar    1  UNL1       -0.2236
@<TRIPOS>UNITY_ATOM_ATTR
6 1
charge -1
@<TRIPOS>BOND
     1     8     9    1
     2     9    10    1
     3     9     1    1
     4     1     2   ar
     5     2     3   ar
     6     3     4   ar
     7     4    11    1
     8    11    12    2
     9    12    13    1
    10    13    14   ar
    11    14    15   ar
    12    15    16   ar
    13    16    17   ar
    14    17    18   ar
    15     4     5   ar
    16     5     6    1
    17     5     7   ar
    18     7     1   ar
    19    18    13   ar
@<TRIPOS>MOLECULE
*****
 18 19 0 0 0
SMALL
GASTEIGER

@<TRIPOS>ATOM
      1 C         138.6257  139.1945  164.1395 C.ar    1  UNL1        0.0468
      2 C         138.6009  138.0393  163.1831 C.ar    1  UNL1        0.0160
      3 C         138.1888  138.2550  161.7570 C.ar    1  UNL1        0.0209
      4 C         137.8014  139.6259  161.2874 C.ar    1  UNL1        0.0876
      5 C         137.8262  140.7811  162.2439 C.ar    1  UNL1       -0.0701
      6 O         137.4388  142.1521  161.7743 O.co2   1  UNL1       -0.8718
      7 C         138.2383  140.5654  163.6699 C.ar    1  UNL1       -0.0006
      8 C         138.0156  138.5852  166.5903 C.3     1  UNL1        0.1122
      9 N         139.0378  138.9789  165.5656 N.pl3   1  UNL1       -0.3041
     10 C         140.4721  139.1568  165.9669 C.3     1  UNL1        0.1122
     11 N         137.3893  139.8416  159.8614 N.2     1  UNL1       -0.1478
     12 N         138.3291  140.5094  158.9019 N.2     1  UNL1       -0.1285
     13 C         137.9170  140.7251  157.4758 C.ar    1  UNL1        0.1838
     14 C         138.9414  141.1066  156.4486 C.ar    1  UNL1        0.0406
     15 C         138.5293  141.3222  155.0225 C.ar    1  UNL1        0.0048
     16 C         137.0928  141.1564  154.6237 C.ar    1  UNL1        0.0208
     17 C         136.0685  140.7750  155.6509 C.ar    1  UNL1        0.1006
     18 N         136.4806  140.5593  157.0770 N.ar    1  UNL1       -0.2236
@<TRIPOS>UNITY_ATOM_ATTR
6 1
charge -1
@<TRIPOS>BOND
     1     8     9    1
     2     9    10    1
     3     9     1    1
     4     1     2   ar
     5     2     3   ar
     6     3     4   ar
     7     4    11    1
     8    11    12    2
     9    12    13    1
    10    13    14   ar
    11    14    15   ar
    12    15    16   ar
    13    16    17   ar
    14    17    18   ar
    15     4     5   ar
    16     5     6    1
    17     5     7   ar
    18     7     1   ar
    19    18    13   ar
@<TRIPOS>MOLECULE
*****
 18 19 0 0 0
SMALL
GASTEIGER

@<TRIPOS>ATOM
      1 C         143.9307  130.3690  157.2305 C.ar    1  UNL1        0.0468
      2 C         144.9323  131.2435  157.9248 C.ar    1  UNL1        0.0160
      3 C         144.7988  132.7360  157.8580 C.ar    1  UNL1        0.0209
      4 C         143.6636  133.3541  157.0968 C.ar    1  UNL1        0.0876
      5 C         142.6621  132.4797  156.4025 C.ar    1  UNL1       -0.0701
      6 O         141.5269  133.0978  155.6413 O.co2   1  UNL1       -0.8718
      7 C         142.7956  130.9871  156.4693 C.ar    1  UNL1       -0.0006
      8 C         143.3694  128.0152  156.2848 C.3     1  UNL1        0.1122
      9 N         144.0643  128.8765  157.2973 N.pl3   1  UNL1       -0.3041
     10 C         144.8928  128.2452  158.3766 C.3     1  UNL1        0.1122
     11 N         143.5301  134.8467  157.0300 N.2     1  UNL1       -0.1478
     12 N         144.0268  135.5910  155.8262 N.2     1  UNL1       -0.1285
     13 C         143.8932  137.0835  155.7593 C.ar    1  UNL1        0.1838
     14 C         142.5697  137.7314  156.0398 C.ar    1  UNL1        0.0406
     15 C         142.4361  139.2240  155.9730 C.ar    1  UNL1        0.0048
     16 C         143.6261  140.0686  155.6257 C.ar    1  UNL1        0.0208
     17 C         144.9496  139.4207  155.3452 C.ar    1  UNL1        0.1006
     18 N         145.0831  137.9282  155.4121 N.ar    1  UNL1       -0.2236
@<TRIPOS>UNITY_ATOM_ATTR
6 1
charge -1
@<TRIPOS>BOND
     1     8     9    1
     2     9    10    1
     3     9     1    1
     4     1     2   ar
     5     2     3   ar
     6     3     4   ar
     7     4    11    1
     8    11    12    2
     9    12    13    1
    10    13    14   ar
    11    14    15   ar
    12    15    16   ar
    13    16    17   ar
    14    17    18   ar
    15     4     5   ar
    16     5     6    1
    17     5     7   ar
    18     7     1   ar
    19    18    13   ar
@<TRIPOS>MOLECULE
*****
 18 19 0 0 0
SMALL
GASTEIGER

@<TRIPOS>ATOM
      1 C         143.2255  138.9407  160.8368 C.ar    1  UNL1        0.0468
      2 C         142.2458  138.1347  161.6372 C.ar    1  UNL1        0.0160
      3 C         142.2650  138.2033  163.1355 C.ar    1  UNL1        0.0209
      4 C         143.2639  139.0779  163.8335 C.ar    1  UNL1        0.0876
      5 C         144.2437  139.8838  163.0331 C.ar    1  UNL1       -0.0701
      6 O         145.2427  140.7584  163.7311 O.co2   1  UNL1       -0.8718
      7 C         144.2245  139.8152  161.5348 C.ar    1  UNL1       -0.0006
      8 C         143.6992  140.0341  158.5282 C.3     1  UNL1        0.1122
      9 N         143.2063  138.8720  159.3385 N.pl3   1  UNL1       -0.3041
     10 C         142.6942  137.6414  158.6506 C.3     1  UNL1        0.1122
     11 N         143.2831  139.1465  165.3318 N.2     1  UNL1       -0.1478
     12 N         142.7163  140.3440  166.0350 N.2     1  UNL1       -0.1285
     13 C         142.7355  140.4126  167.5334 C.ar    1  UNL1        0.1838
     14 C         142.5044  139.1718  168.3440 C.ar    1  UNL1        0.0406
     15 C         142.5236  139.2404  169.8423 C.ar    1  UNL1        0.0048
     16 C         142.7739  140.5498  170.5300 C.ar    1  UNL1        0.0208
     17 C         143.0051  141.7905  169.7193 C.ar    1  UNL1        0.1006
     18 N         142.9858  141.7219  168.2210 N.ar    1  UNL1       -0.2236
@<TRIPOS>UNITY_ATOM_ATTR
6 1
charge -1
@<TRIPOS>BOND
     1     8     9    1
     2     9    10    1
     3     9     1    1
     4     1     2   ar
     5     2     3   ar
     6     3     4   ar
     7     4    11    1
     8    11    12    2
     9    12    13    1
    10    13    14   ar
    11    14    15   ar
    12    15    16   ar
    13    16    17   ar
    14    17    18   ar
    15     4     5   ar
    16     5     6    1
    17     5     7   ar
    18     7     1   ar
    19    18    13   ar
@<TRIPOS>MOLECULE
*****
 18 19 0 0 0
SMALL
GASTEIGER

@<TRIPOS>ATOM
      1 C         139.0080  141.9574  161.1415 C.ar    1  UNL1        0.0468
      2 C         140.4347  141.6267  161.4659 C.ar    1  UNL1        0.0160
      3 C         141.0008  141.9838  162.8083 C.ar    1  UNL1        0.0209
      4 C         140.1402  142.6716  163.8263 C.ar    1  UNL1        0.0876
      5 C         138.7136  143.0023  163.5019 C.ar    1  UNL1       -0.0701
      6 O         137.8530  143.6902  164.5199 O.co2   1  UNL1       -0.8718
      7 C         138.1475  142.6453  162.1595 C.ar    1  UNL1       -0.0006
      8 C         137.9066  140.2208  159.5538 C.3     1  UNL1        0.1122
      9 N         138.4420  141.6003  159.7991 N.pl3   1  UNL1       -0.3041
     10 C         138.4112  142.6228  158.7021 C.3     1  UNL1        0.1122
     11 N         140.7063  143.0287  165.1687 N.2     1  UNL1       -0.1478
     12 N         140.8040  141.9863  166.2429 N.2     1  UNL1       -0.1285
     13 C         141.3701  142.3434  167.5853 C.ar    1  UNL1        0.1838
     14 C         140.5077  143.0256  168.6055 C.ar    1  UNL1        0.0406
     15 C         141.0738  143.3827  169.9479 C.ar    1  UNL1        0.0048
     16 C         142.5023  143.0576  170.2700 C.ar    1  UNL1        0.0208
     17 C         143.3647  142.3754  169.2498 C.ar    1  UNL1        0.1006
     18 N         142.7986  142.0183  167.9074 N.ar    1  UNL1       -0.2236
@<TRIPOS>UNITY_ATOM_ATTR
6 1
charge -1
@<TRIPOS>BOND
     1     8     9    1
     2     9    10    1
     3     9     1    1
     4     1     2   ar
     5     2     3   ar
     6     3     4   ar
     7     4    11    1
     8    11    12    2
     9    12    13    1
    10    13    14   ar
    11    14    15   ar
    12    15    16   ar
    13    16    17   ar
    14    17    18   ar
    15     4     5   ar
    16     5     6    1
    17     5     7   ar
    18     7     1   ar
    19    18    13   ar
@<TRIPOS>MOLECULE
*****
 18 19 0 0 0
SMALL
GASTEIGER

@<TRIPOS>ATOM
      1 C         141.3087  140.3400  168.4767 C.ar    1  UNL1        0.0468
      2 C         140.0435  140.2354  167.6777 C.ar    1  UNL1        0.0160
      3 C         139.9612  140.8635  166.3180 C.ar    1  UNL1        0.0209
      4 C         141.1439  141.5961  165.7573 C.ar    1  UNL1        0.0876
      5 C         142.4090  141.7006  166.5563 C.ar    1  UNL1       -0.0701
      6 O         143.5918  142.4332  165.9957 O.co2   1  UNL1       -0.8718
      7 C         142.4914  141.0726  167.9160 C.ar    1  UNL1       -0.0006
      8 C         140.3460  140.0173  170.8682 C.3     1  UNL1        0.1122
      9 N         141.3910  139.7120  169.8364 N.pl3   1  UNL1       -0.3041
     10 C         142.5185  138.7786  170.1644 C.3     1  UNL1        0.1122
     11 N         141.0615  142.2241  164.3976 N.2     1  UNL1       -0.1478
     12 N         140.8267  143.6997  164.2660 N.2     1  UNL1       -0.1285
     13 C         140.7443  144.3277  162.9063 C.ar    1  UNL1        0.1838
     14 C         139.8226  145.4875  162.6704 C.ar    1  UNL1        0.0406
     15 C         139.7402  146.1155  161.3107 C.ar    1  UNL1        0.0048
     16 C         140.5796  145.5838  160.1869 C.ar    1  UNL1        0.0208
     17 C         141.5012  144.4241  160.4228 C.ar    1  UNL1        0.1006
     18 N         141.5836  143.7961  161.7825 N.ar    1  UNL1       -0.2236
@<TRIPOS>UNITY_ATOM_ATTR
6 1
charge -1
@<TRIPOS>BOND
     1     8     9    1
     2     9    10    1
     3     9     1    1
     4     1     2   ar
     5     2     3   ar
     6     3     4   ar
     7     4    11    1
     8    11    12    2
     9    12    13    1
    10    13    14   ar
    11    14    15   ar
    12    15    16   ar
    13    16    17   ar
    14    17    18   ar
    15     4     5   ar
    16     5     6    1
    17     5     7   ar
    18     7     1   ar
    19    18    13   ar
@<TRIPOS>MOLECULE
*****
 18 19 0 0 0
SMALL
GASTEIGER

@<TRIPOS>ATOM
      1 C         140.9020  138.7472  161.0863 C.ar    1  UNL1        0.0468
      2 C         140.2656  140.0679  161.4037 C.ar    1  UNL1        0.0160
      3 C         139.9369  140.4199  162.8243 C.ar    1  UNL1        0.0209
      4 C         140.2445  139.4512  163.9274 C.ar    1  UNL1        0.0876
      5 C         140.8808  138.1306  163.6100 C.ar    1  UNL1       -0.0701
      6 O         141.1885  137.1618  164.7132 O.co2   1  UNL1       -0.8718
      7 C         141.2096  137.7786  162.1894 C.ar    1  UNL1       -0.0006
      8 C         140.1616  138.4425  158.6147 C.3     1  UNL1        0.1122
      9 N         141.2307  138.3952  159.6657 N.pl3   1  UNL1       -0.3041
     10 C         142.6285  137.9960  159.2961 C.3     1  UNL1        0.1122
     11 N         139.9158  139.8032  165.3480 N.2     1  UNL1       -0.1478
     12 N         140.6818  140.8858  166.0489 N.2     1  UNL1       -0.1285
     13 C         140.3531  141.2378  167.4695 C.ar    1  UNL1        0.1838
     14 C         139.6351  140.2495  168.3402 C.ar    1  UNL1        0.0406
     15 C         139.3064  140.6015  169.7608 C.ar    1  UNL1        0.0048
     16 C         139.6957  141.9418  170.3107 C.ar    1  UNL1        0.0208
     17 C         140.4136  142.9299  169.4400 C.ar    1  UNL1        0.1006
     18 N         140.7423  142.5779  168.0194 N.ar    1  UNL1       -0.2236
@<TRIPOS>UNITY_ATOM_ATTR
6 1
charge -1
@<TRIPOS>BOND
     1     8     9    1
     2     9    10    1
     3     9     1    1
     4     1     2   ar
     5     2     3   ar
     6     3     4   ar
     7     4    11    1
     8    11    12    2
     9    12    13    1
    10    13    14   ar
    11    14    15   ar
    12    15    16   ar
    13    16    17   ar
    14    17    18   ar
    15     4     5   ar
    16     5     6    1
    17     5     7   ar
    18     7     1   ar
    19    18    13   ar
