@<TRIPOS>MOLECULE
*****
 31 33 0 0 0
SMALL
GASTEIGER

@<TRIPOS>ATOM
      1 C         142.4960  141.7699  167.4338 C.ar    1  UNL1        0.1300
      2 N         143.4123  142.5410  168.3370 N.ar    1  UNL1       -0.1995
      3 C         143.1011  142.6563  169.7998 C.ar    1  UNL1        0.2145
      4 N         144.0175  143.4274  170.7031 N.pl3   1  UNL1       -0.3274
      5 N         141.8736  142.0005  170.3595 N.ar    1  UNL1       -0.2185
      6 C         140.9572  141.2294  169.4562 C.ar    1  UNL1        0.0639
      7 C         141.2684  141.1141  167.9934 C.ar    1  UNL1        0.0429
      8 C         140.3521  140.3431  167.0902 C.3     1  UNL1        0.1244
      9 N         139.1247  139.6873  167.6498 N.am    1  UNL1       -0.2702
     10 C         138.2083  138.9162  166.7466 C.2     1  UNL1        0.2675
     11 O         136.9808  138.2605  167.3062 O.2     1  UNL1       -0.2682
     12 C         138.8135  139.8026  169.1126 C.3     1  UNL1        0.1004
     13 C         139.7298  140.5737  170.0158 C.3     1  UNL1        0.0672
     14 H         144.8231  143.8578  170.3358 H       1  UNL1        0.1452
     15 H         143.8132  143.5030  171.6632 H       1  UNL1        0.1452
     16 C         138.5195  138.8009  165.2837 C.ar    1  UNL1        0.1413
     17 C         139.2548  137.6716  164.6251 C.ar    1  UNL1        0.0603
     18 S         139.3398  137.9674  163.1570 S.2     1  UNL1       -0.0701
     19 C         138.6569  139.2796  162.9083 C.ar    1  UNL1        0.0888
     20 C         138.5073  139.9577  161.5787 C.3     1  UNL1        0.0594
     21 N         138.1500  139.7948  164.2227 N.ar    1  UNL1       -0.2381
     22 N         142.8072  141.6546  165.9710 N.pl3   1  UNL1       -0.3197
     23 H         143.1711  140.8142  165.6099 H       1  UNL1        0.1481
     24 C         142.5639  142.8199  165.0583 C.3     1  UNL1        0.0728
     25 C         141.1917  143.0650  164.5044 C.3     1  UNL1        0.0196
     26 C         139.2073  144.7030  164.8640 C.3     1  UNL1        0.0001
     27 C         140.1173  143.6305  165.3852 C.3     1  UNL1        0.0017
     28 C         143.6930  143.7401  164.6996 C.3     1  UNL1        0.0512
     29 C         143.4147  145.0173  163.9638 C.3     1  UNL1        0.1389
     30 O         143.6366  145.0928  162.4823 O.3     1  UNL1       -0.3819
     31 H         144.5831  144.9987  162.2919 H       1  UNL1        0.2104
@<TRIPOS>BOND
     1    26    27    1
     2    27    25    1
     3    24    25    1
     4    24    28    1
     5    28    29    1
     6    29    30    1
     7    24    22    1
     8    22     1    1
     9     1     2   ar
    10     2     3   ar
    11     3     4    1
    12     3     5   ar
    13     5     6   ar
    14     6     7   ar
    15     7     8    1
    16     8     9    1
    17     9    10   am
    18    10    11    2
    19    10    16    1
    20    16    17   ar
    21    17    18   ar
    22    18    19   ar
    23    19    20    1
    24    19    21   ar
    25     9    12    1
    26    12    13    1
    27     7     1   ar
    28    21    16   ar
    29    13     6    1
    30    30    31    1
    31    22    23    1
    32     4    14    1
    33     4    15    1
@<TRIPOS>MOLECULE
*****
 31 33 0 0 0
SMALL
GASTEIGER

@<TRIPOS>ATOM
      1 C         142.5080  141.7356  167.5571 C.ar    1  UNL1        0.1300
      2 N         143.4457  142.5308  168.4162 N.ar    1  UNL1       -0.1995
      3 C         143.1564  142.7083  169.8773 C.ar    1  UNL1        0.2145
      4 N         144.0942  143.5036  170.7365 N.pl3   1  UNL1       -0.3274
      5 N         141.9292  142.0904  170.4793 N.ar    1  UNL1       -0.2185
      6 C         140.9914  141.2951  169.6202 C.ar    1  UNL1        0.0639
      7 C         141.2808  141.1177  168.1591 C.ar    1  UNL1        0.0429
      8 C         140.3430  140.3224  167.3000 C.3     1  UNL1        0.1244
      9 N         139.1159  139.7046  167.9019 N.am    1  UNL1       -0.2702
     10 C         138.1780  138.9093  167.0428 C.2     1  UNL1        0.2675
     11 O         136.9509  138.2915  167.6448 O.2     1  UNL1       -0.2682
     12 C         138.8265  139.8820  169.3630 C.3     1  UNL1        0.1004
     13 C         139.7643  140.6773  170.2221 C.3     1  UNL1        0.0672
     14 H         144.8996  143.9091  170.3413 H       1  UNL1        0.1452
     15 H         143.9043  143.6200  171.6954 H       1  UNL1        0.1452
     16 C         138.4674  138.7319  165.5817 C.ar    1  UNL1        0.1413
     17 C         139.1827  137.5696  164.9593 C.ar    1  UNL1        0.0603
     18 S         139.2496  137.8049  163.4794 S.2     1  UNL1       -0.0701
     19 C         138.5757  139.1128  163.1872 C.ar    1  UNL1        0.0888
     20 C         138.4137  139.7380  161.8333 C.3     1  UNL1        0.0594
     21 N         138.0923  139.6856  164.4864 N.ar    1  UNL1       -0.2381
     22 N         142.7973  141.5582  166.0960 N.pl3   1  UNL1       -0.3197
     23 H         142.7439  140.6635  165.6887 H       1  UNL1        0.1481
     24 C         143.1681  142.7439  165.2555 C.3     1  UNL1        0.0728
     25 C         144.6103  143.0338  164.9622 C.3     1  UNL1        0.0196
     26 C         145.3714  140.7728  163.9331 C.3     1  UNL1        0.0001
     27 C         145.3247  142.2714  163.8858 C.3     1  UNL1        0.0017
     28 C         142.0967  143.6398  164.7082 C.3     1  UNL1        0.0512
     29 C         140.6811  143.1509  164.6235 C.3     1  UNL1        0.1389
     30 O         140.3947  141.7659  164.1239 O.3     1  UNL1       -0.3819
     31 H         140.6451  141.7012  163.1890 H       1  UNL1        0.2104
@<TRIPOS>BOND
     1    26    27    1
     2    27    25    1
     3    24    25    1
     4    24    28    1
     5    28    29    1
     6    29    30    1
     7    24    22    1
     8    22     1    1
     9     1     2   ar
    10     2     3   ar
    11     3     4    1
    12     3     5   ar
    13     5     6   ar
    14     6     7   ar
    15     7     8    1
    16     8     9    1
    17     9    10   am
    18    10    11    2
    19    10    16    1
    20    16    17   ar
    21    17    18   ar
    22    18    19   ar
    23    19    20    1
    24    19    21   ar
    25     9    12    1
    26    12    13    1
    27     7     1   ar
    28    21    16   ar
    29    13     6    1
    30    30    31    1
    31    22    23    1
    32     4    14    1
    33     4    15    1
@<TRIPOS>MOLECULE
*****
 31 33 0 0 0
SMALL
GASTEIGER

@<TRIPOS>ATOM
      1 C         142.4884  141.9720  167.1738 C.ar    1  UNL1        0.1300
      2 N         143.5169  142.6121  168.0583 N.ar    1  UNL1       -0.1995
      3 C         143.4120  142.4787  169.5487 C.ar    1  UNL1        0.2145
      4 N         144.4406  143.1188  170.4332 N.pl3   1  UNL1       -0.3274
      5 N         142.2785  141.7054  170.1545 N.ar    1  UNL1       -0.2185
      6 C         141.2499  141.0653  169.2700 C.ar    1  UNL1        0.0639
      7 C         141.3548  141.1986  167.7796 C.ar    1  UNL1        0.0429
      8 C         140.3263  140.5586  166.8951 C.3     1  UNL1        0.1244
      9 N         139.1928  139.7853  167.5010 N.am    1  UNL1       -0.2702
     10 C         138.1642  139.1452  166.6165 C.2     1  UNL1        0.2675
     11 O         137.0307  138.3718  167.2223 O.2     1  UNL1       -0.2682
     12 C         139.0879  139.6519  168.9914 C.3     1  UNL1        0.1004
     13 C         140.1164  140.2919  169.8759 C.3     1  UNL1        0.0672
     14 H         145.1846  143.6264  170.0355 H       1  UNL1        0.1452
     15 H         144.3718  143.0313  171.4114 H       1  UNL1        0.1452
     16 C         138.2691  139.2785  165.1261 C.ar    1  UNL1        0.1413
     17 C         137.9215  140.4969  164.3232 C.ar    1  UNL1        0.0603
     18 S         138.1776  140.1883  162.8778 S.2     1  UNL1       -0.0701
     19 C         138.6835  138.7791  162.7874 C.ar    1  UNL1        0.0888
     20 C         139.0658  138.0586  161.5285 C.3     1  UNL1        0.0594
     21 N         138.7401  138.2168  164.1769 N.ar    1  UNL1       -0.2381
     22 N         142.5933  142.1054  165.6834 N.pl3   1  UNL1       -0.3197
     23 H         141.7951  141.9812  165.1207 H       1  UNL1        0.1481
     24 C         143.9144  142.4279  165.0504 C.3     1  UNL1        0.0728
     25 C         144.4175  143.8409  165.0432 C.3     1  UNL1        0.0196
     26 C         142.9297  144.3791  162.9824 C.3     1  UNL1        0.0001
     27 C         143.8392  144.8381  164.0834 C.3     1  UNL1        0.0017
     28 C         144.7323  141.3373  164.4246 C.3     1  UNL1        0.0512
     29 C         145.9313  141.6827  163.5920 C.3     1  UNL1        0.1389
     30 O         145.7523  142.1627  162.1822 O.3     1  UNL1       -0.3819
     31 H         145.3800  141.4480  161.6422 H       1  UNL1        0.2104
@<TRIPOS>BOND
     1    26    27    1
     2    27    25    1
     3    24    25    1
     4    24    28    1
     5    28    29    1
     6    29    30    1
     7    24    22    1
     8    22     1    1
     9     1     2   ar
    10     2     3   ar
    11     3     4    1
    12     3     5   ar
    13     5     6   ar
    14     6     7   ar
    15     7     8    1
    16     8     9    1
    17     9    10   am
    18    10    11    2
    19    10    16    1
    20    16    17   ar
    21    17    18   ar
    22    18    19   ar
    23    19    20    1
    24    19    21   ar
    25     9    12    1
    26    12    13    1
    27     7     1   ar
    28    21    16   ar
    29    13     6    1
    30    30    31    1
    31    22    23    1
    32     4    14    1
    33     4    15    1
@<TRIPOS>MOLECULE
*****
 31 33 0 0 0
SMALL
GASTEIGER

@<TRIPOS>ATOM
      1 C         139.0332  140.1655  165.4695 C.ar    1  UNL1        0.1300
      2 N         138.0516  139.4576  166.3557 N.ar    1  UNL1       -0.1995
      3 C         138.0336  137.9587  166.4080 C.ar    1  UNL1        0.2145
      4 N         137.0519  137.2508  167.2943 N.pl3   1  UNL1       -0.3274
      5 N         138.9973  137.1675  165.5742 N.ar    1  UNL1       -0.2185
      6 C         139.9790  137.8753  164.6879 C.ar    1  UNL1        0.0639
      7 C         139.9969  139.3743  164.6356 C.ar    1  UNL1        0.0429
      8 C         140.9785  140.0821  163.7494 C.3     1  UNL1        0.1244
      9 N         141.9422  139.2910  162.9156 N.am    1  UNL1       -0.2702
     10 C         142.9239  139.9988  162.0293 C.2     1  UNL1        0.2675
     11 O         143.8876  139.2076  161.1955 O.2     1  UNL1       -0.2682
     12 C         141.9243  137.7920  162.9679 C.3     1  UNL1        0.1004
     13 C         140.9427  137.0842  163.8541 C.3     1  UNL1        0.0672
     14 H         136.4194  137.7701  167.8416 H       1  UNL1        0.1452
     15 H         137.0402  136.2670  167.3287 H       1  UNL1        0.1452
     16 C         142.9418  141.4978  161.9770 C.ar    1  UNL1        0.1413
     17 C         142.3353  142.3498  160.9017 C.ar    1  UNL1        0.0603
     18 S         142.5880  143.7865  161.2509 S.2     1  UNL1       -0.0701
     19 C         143.3508  143.8225  162.5419 C.ar    1  UNL1        0.0888
     20 C         143.8136  145.0563  163.2585 C.3     1  UNL1        0.0594
     21 N         143.5694  142.4080  162.9907 N.ar    1  UNL1       -0.2381
     22 N         139.0511  141.6644  165.4172 N.pl3   1  UNL1       -0.3197
     23 H         139.6957  142.1684  165.9646 H       1  UNL1        0.1481
     24 C         138.0869  142.3955  164.5307 C.3     1  UNL1        0.0728
     25 C         137.7597  143.8337  164.8037 C.3     1  UNL1        0.0196
     26 C         140.0276  144.7791  163.9593 C.3     1  UNL1        0.0001
     27 C         138.8604  144.8483  164.8990 C.3     1  UNL1        0.0017
     28 C         137.4499  141.6884  163.3713 C.3     1  UNL1        0.0512
     29 C         137.9025  141.9839  161.9721 C.3     1  UNL1        0.1389
     30 O         137.6165  143.3223  161.3582 O.3     1  UNL1       -0.3819
     31 H         136.6590  143.4280  161.2448 H       1  UNL1        0.2104
@<TRIPOS>BOND
     1    26    27    1
     2    27    25    1
     3    24    25    1
     4    24    28    1
     5    28    29    1
     6    29    30    1
     7    24    22    1
     8    22     1    1
     9     1     2   ar
    10     2     3   ar
    11     3     4    1
    12     3     5   ar
    13     5     6   ar
    14     6     7   ar
    15     7     8    1
    16     8     9    1
    17     9    10   am
    18    10    11    2
    19    10    16    1
    20    16    17   ar
    21    17    18   ar
    22    18    19   ar
    23    19    20    1
    24    19    21   ar
    25     9    12    1
    26    12    13    1
    27     7     1   ar
    28    21    16   ar
    29    13     6    1
    30    30    31    1
    31    22    23    1
    32     4    14    1
    33     4    15    1
@<TRIPOS>MOLECULE
*****
 31 33 0 0 0
SMALL
GASTEIGER

@<TRIPOS>ATOM
      1 C         139.5359  139.8782  166.6628 C.ar    1  UNL1        0.1300
      2 N         138.4094  139.1981  167.3829 N.ar    1  UNL1       -0.1995
      3 C         137.8646  137.8995  166.8664 C.ar    1  UNL1        0.2145
      4 N         136.7381  137.2194  167.5865 N.pl3   1  UNL1       -0.3274
      5 N         138.4463  137.2810  165.6299 N.ar    1  UNL1       -0.2185
      6 C         139.5728  137.9611  164.9098 C.ar    1  UNL1        0.0639
      7 C         140.1176  139.2597  165.4263 C.ar    1  UNL1        0.0429
      8 C         141.2441  139.9398  164.7062 C.3     1  UNL1        0.1244
      9 N         141.8258  139.3212  163.4697 N.am    1  UNL1       -0.2702
     10 C         142.9523  140.0013  162.7496 C.2     1  UNL1        0.2675
     11 O         143.5340  139.3827  161.5131 O.2     1  UNL1       -0.2682
     12 C         141.2810  138.0226  162.9532 C.3     1  UNL1        0.1004
     13 C         140.1545  137.3425  163.6733 C.3     1  UNL1        0.0672
     14 H         136.3563  137.6254  168.3981 H       1  UNL1        0.1452
     15 H         136.3805  136.3671  167.2475 H       1  UNL1        0.1452
     16 C         143.4971  141.2999  163.2661 C.ar    1  UNL1        0.1413
     17 C         144.6176  141.4566  164.2510 C.ar    1  UNL1        0.0603
     18 S         144.8301  142.9234  164.4820 S.2     1  UNL1       -0.0701
     19 C         143.8409  143.6733  163.6398 C.ar    1  UNL1        0.0888
     20 C         143.7002  145.1647  163.5627 C.3     1  UNL1        0.0594
     21 N         143.0171  142.6699  162.8884 N.ar    1  UNL1       -0.2381
     22 N         140.0807  141.1769  167.1793 N.pl3   1  UNL1       -0.3197
     23 H         139.9076  142.0130  166.6892 H       1  UNL1        0.1481
     24 C         140.8892  141.2016  168.4425 C.3     1  UNL1        0.0728
     25 C         142.3804  141.0511  168.3817 C.3     1  UNL1        0.0196
     26 C         143.9673  142.4927  169.8492 C.3     1  UNL1        0.0001
     27 C         143.2628  142.2529  168.5468 C.3     1  UNL1        0.0017
     28 C         140.2064  141.3768  169.7667 C.3     1  UNL1        0.0512
     29 C         140.5781  140.4982  170.9242 C.3     1  UNL1        0.1389
     30 O         139.6869  139.3572  171.3161 O.3     1  UNL1       -0.3819
     31 H         138.8412  139.7042  171.6407 H       1  UNL1        0.2104
@<TRIPOS>BOND
     1    26    27    1
     2    27    25    1
     3    24    25    1
     4    24    28    1
     5    28    29    1
     6    29    30    1
     7    24    22    1
     8    22     1    1
     9     1     2   ar
    10     2     3   ar
    11     3     4    1
    12     3     5   ar
    13     5     6   ar
    14     6     7   ar
    15     7     8    1
    16     8     9    1
    17     9    10   am
    18    10    11    2
    19    10    16    1
    20    16    17   ar
    21    17    18   ar
    22    18    19   ar
    23    19    20    1
    24    19    21   ar
    25     9    12    1
    26    12    13    1
    27     7     1   ar
    28    21    16   ar
    29    13     6    1
    30    30    31    1
    31    22    23    1
    32     4    14    1
    33     4    15    1
@<TRIPOS>MOLECULE
*****
 31 33 0 0 0
SMALL
GASTEIGER

@<TRIPOS>ATOM
      1 C         140.7700  142.5041  167.9145 C.ar    1  UNL1        0.1300
      2 N         140.0173  143.2916  168.9456 N.ar    1  UNL1       -0.1995
      3 C         139.9654  142.8112  170.3657 C.ar    1  UNL1        0.2145
      4 N         139.2126  143.5988  171.3968 N.pl3   1  UNL1       -0.3274
      5 N         140.6661  141.5433  170.7546 N.ar    1  UNL1       -0.2185
      6 C         141.4189  140.7557  169.7235 C.ar    1  UNL1        0.0639
      7 C         141.4709  141.2361  168.3035 C.ar    1  UNL1        0.0429
      8 C         142.2236  140.4486  167.2724 C.3     1  UNL1        0.1244
      9 N         142.9244  139.1807  167.6614 N.am    1  UNL1       -0.2702
     10 C         143.6771  138.3931  166.6303 C.2     1  UNL1        0.2675
     11 O         144.3779  137.1252  167.0192 O.2     1  UNL1       -0.2682
     12 C         142.8724  138.7003  169.0814 C.3     1  UNL1        0.1004
     13 C         142.1197  139.4878  170.1125 C.3     1  UNL1        0.0672
     14 H         138.7526  144.4310  171.1415 H       1  UNL1        0.1452
     15 H         139.1785  143.2835  172.3288 H       1  UNL1        0.1452
     16 C         143.7291  138.8735  165.2102 C.ar    1  UNL1        0.1413
     17 C         144.8038  139.7290  164.6076 C.ar    1  UNL1        0.0603
     18 S         144.4544  139.9669  163.1684 S.2     1  UNL1       -0.0701
     19 C         143.1637  139.2585  162.8815 C.ar    1  UNL1        0.0888
     20 C         142.4471  139.2307  161.5640 C.3     1  UNL1        0.0594
     21 N         142.7155  138.5827  164.1434 N.ar    1  UNL1       -0.2381
     22 N         140.8220  142.9844  166.4945 N.pl3   1  UNL1       -0.3197
     23 H         141.6565  143.3608  166.1324 H       1  UNL1        0.1481
     24 C         139.6025  142.8914  165.6262 C.3     1  UNL1        0.0728
     25 C         138.9751  144.1387  165.0780 C.3     1  UNL1        0.0196
     26 C         137.9333  143.9014  162.7097 C.3     1  UNL1        0.0001
     27 C         137.7672  144.0445  164.1936 C.3     1  UNL1        0.0017
     28 C         139.0102  141.5509  165.3060 C.3     1  UNL1        0.0512
     29 C         139.6743  140.6586  164.2997 C.3     1  UNL1        0.1389
     30 O         139.9142  139.2134  164.6217 O.3     1  UNL1       -0.3819
     31 H         140.5552  139.1457  165.3467 H       1  UNL1        0.2104
@<TRIPOS>BOND
     1    26    27    1
     2    27    25    1
     3    24    25    1
     4    24    28    1
     5    28    29    1
     6    29    30    1
     7    24    22    1
     8    22     1    1
     9     1     2   ar
    10     2     3   ar
    11     3     4    1
    12     3     5   ar
    13     5     6   ar
    14     6     7   ar
    15     7     8    1
    16     8     9    1
    17     9    10   am
    18    10    11    2
    19    10    16    1
    20    16    17   ar
    21    17    18   ar
    22    18    19   ar
    23    19    20    1
    24    19    21   ar
    25     9    12    1
    26    12    13    1
    27     7     1   ar
    28    21    16   ar
    29    13     6    1
    30    30    31    1
    31    22    23    1
    32     4    14    1
    33     4    15    1
@<TRIPOS>MOLECULE
*****
 31 33 0 0 0
SMALL
GASTEIGER

@<TRIPOS>ATOM
      1 C         140.3390  141.1951  164.2282 C.ar    1  UNL1        0.1300
      2 N         139.9883  140.8906  162.8020 N.ar    1  UNL1       -0.1995
      3 C         138.9391  139.8650  162.4901 C.ar    1  UNL1        0.2145
      4 N         138.5884  139.5605  161.0638 N.pl3   1  UNL1       -0.3274
      5 N         138.2406  139.1439  163.6046 N.ar    1  UNL1       -0.2185
      6 C         138.5913  139.4483  165.0309 C.ar    1  UNL1        0.0639
      7 C         139.6405  140.4740  165.3427 C.ar    1  UNL1        0.0429
      8 C         139.9912  140.7785  166.7690 C.3     1  UNL1        0.1244
      9 N         139.2927  140.0573  167.8834 N.am    1  UNL1       -0.2702
     10 C         139.6434  140.3618  169.3098 C.2     1  UNL1        0.2675
     11 O         138.9449  139.6407  170.4242 O.2     1  UNL1       -0.2682
     12 C         138.2434  139.0317  167.5716 C.3     1  UNL1        0.1004
     13 C         137.8927  138.7272  166.1454 C.3     1  UNL1        0.0672
     14 H         139.0468  140.0338  160.3323 H       1  UNL1        0.1452
     15 H         137.8997  138.8874  160.8591 H       1  UNL1        0.1452
     16 C         140.6926  141.3874  169.6216 C.ar    1  UNL1        0.1413
     17 C         140.4423  142.8083  170.0320 C.ar    1  UNL1        0.0603
     18 S         141.7713  143.4713  170.2418 S.2     1  UNL1       -0.0701
     19 C         142.8432  142.4601  169.9610 C.ar    1  UNL1        0.0888
     20 C         144.3220  142.6955  170.0483 C.3     1  UNL1        0.0594
     21 N         142.1765  141.1723  169.5777 N.ar    1  UNL1       -0.2381
     22 N         141.3883  142.2207  164.5400 N.pl3   1  UNL1       -0.3197
     23 H         142.3195  141.9410  164.6944 H       1  UNL1        0.1481
     24 C         141.0187  143.6724  164.6166 C.3     1  UNL1        0.0728
     25 C         139.8514  144.1060  165.4529 C.3     1  UNL1        0.0196
     26 C         138.0123  144.0123  163.6202 C.3     1  UNL1        0.0001
     27 C         138.6384  144.6979  164.7983 C.3     1  UNL1        0.0017
     28 C         141.8164  144.6906  163.8569 C.3     1  UNL1        0.0512
     29 C         143.3152  144.6323  163.8717 C.3     1  UNL1        0.1389
     30 O         144.0236  143.8125  164.9089 O.3     1  UNL1       -0.3819
     31 H         143.8674  144.1958  165.7862 H       1  UNL1        0.2104
@<TRIPOS>BOND
     1    26    27    1
     2    27    25    1
     3    24    25    1
     4    24    28    1
     5    28    29    1
     6    29    30    1
     7    24    22    1
     8    22     1    1
     9     1     2   ar
    10     2     3   ar
    11     3     4    1
    12     3     5   ar
    13     5     6   ar
    14     6     7   ar
    15     7     8    1
    16     8     9    1
    17     9    10   am
    18    10    11    2
    19    10    16    1
    20    16    17   ar
    21    17    18   ar
    22    18    19   ar
    23    19    20    1
    24    19    21   ar
    25     9    12    1
    26    12    13    1
    27     7     1   ar
    28    21    16   ar
    29    13     6    1
    30    30    31    1
    31    22    23    1
    32     4    14    1
    33     4    15    1
@<TRIPOS>MOLECULE
*****
 31 33 0 0 0
SMALL
GASTEIGER

@<TRIPOS>ATOM
      1 C         139.5373  140.5578  166.4654 C.ar    1  UNL1        0.1300
      2 N         139.2699  140.0146  167.8377 N.ar    1  UNL1       -0.1995
      3 C         140.2836  140.1989  168.9279 C.ar    1  UNL1        0.2145
      4 N         140.0161  139.6557  170.3004 N.pl3   1  UNL1       -0.3274
      5 N         141.5646  140.9263  168.6458 N.ar    1  UNL1       -0.2185
      6 C         141.8321  141.4695  167.2734 C.ar    1  UNL1        0.0639
      7 C         140.8184  141.2852  166.1832 C.ar    1  UNL1        0.0429
      8 C         141.0858  141.8284  164.8108 C.3     1  UNL1        0.1244
      9 N         142.3669  142.5558  164.5286 N.am    1  UNL1       -0.2702
     10 C         142.6344  143.0990  163.1562 C.2     1  UNL1        0.2675
     11 O         143.9155  143.8264  162.8740 O.2     1  UNL1       -0.2682
     12 C         143.3806  142.7401  165.6188 C.3     1  UNL1        0.1004
     13 C         143.1132  142.1969  166.9912 C.3     1  UNL1        0.0672
     14 H         139.1753  139.1782  170.4856 H       1  UNL1        0.1452
     15 H         140.6814  139.7766  171.0159 H       1  UNL1        0.1452
     16 C         141.6207  142.9148  162.0660 C.ar    1  UNL1        0.1413
     17 C         140.6150  143.9326  161.6160 C.ar    1  UNL1        0.0603
     18 S         139.8075  143.3272  160.5063 S.2     1  UNL1       -0.0701
     19 C         140.3142  141.9352  160.2704 C.ar    1  UNL1        0.0888
     20 C         139.7919  140.9680  159.2498 C.3     1  UNL1        0.0594
     21 N         141.4348  141.6804  161.2344 N.ar    1  UNL1       -0.2381
     22 N         138.5236  140.3735  165.3752 N.pl3   1  UNL1       -0.3197
     23 H         137.7785  141.0104  165.2831 H       1  UNL1        0.1481
     24 C         138.6452  139.2190  164.4254 C.3     1  UNL1        0.0728
     25 C         139.1309  137.8888  164.9200 C.3     1  UNL1        0.0196
     26 C         141.1108  137.1345  163.4162 C.3     1  UNL1        0.0001
     27 C         140.5748  137.5127  164.7651 C.3     1  UNL1        0.0017
     28 C         138.2810  139.3947  162.9808 C.3     1  UNL1        0.0512
     29 C         137.7474  140.7102  162.4965 C.3     1  UNL1        0.1389
     30 O         136.5867  141.3523  163.1967 O.3     1  UNL1       -0.3819
     31 H         135.7953  140.8035  163.0808 H       1  UNL1        0.2104
@<TRIPOS>BOND
     1    26    27    1
     2    27    25    1
     3    24    25    1
     4    24    28    1
     5    28    29    1
     6    29    30    1
     7    24    22    1
     8    22     1    1
     9     1     2   ar
    10     2     3   ar
    11     3     4    1
    12     3     5   ar
    13     5     6   ar
    14     6     7   ar
    15     7     8    1
    16     8     9    1
    17     9    10   am
    18    10    11    2
    19    10    16    1
    20    16    17   ar
    21    17    18   ar
    22    18    19   ar
    23    19    20    1
    24    19    21   ar
    25     9    12    1
    26    12    13    1
    27     7     1   ar
    28    21    16   ar
    29    13     6    1
    30    30    31    1
    31    22    23    1
    32     4    14    1
    33     4    15    1
@<TRIPOS>MOLECULE
*****
 31 33 0 0 0
SMALL
GASTEIGER

@<TRIPOS>ATOM
      1 C         140.4136  141.3358  166.7345 C.ar    1  UNL1        0.1300
      2 N         140.0474  141.3396  168.1891 N.ar    1  UNL1       -0.1995
      3 C         139.1883  140.2449  168.7491 C.ar    1  UNL1        0.2145
      4 N         138.8221  140.2488  170.2037 N.pl3   1  UNL1       -0.3274
      5 N         138.6954  139.1464  167.8545 N.ar    1  UNL1       -0.2185
      6 C         139.0616  139.1426  166.3998 C.ar    1  UNL1        0.0639
      7 C         139.9207  140.2372  165.8398 C.ar    1  UNL1        0.0429
      8 C         140.2869  140.2334  164.3853 C.3     1  UNL1        0.1244
      9 N         139.7940  139.1349  163.4907 N.am    1  UNL1       -0.2702
     10 C         140.1602  139.1311  162.0360 C.2     1  UNL1        0.2675
     11 O         139.6673  138.0326  161.1415 O.2     1  UNL1       -0.2682
     12 C         138.9349  138.0402  164.0507 C.3     1  UNL1        0.1004
     13 C         138.5687  138.0441  165.5053 C.3     1  UNL1        0.0672
     14 H         139.1456  140.9698  170.7909 H       1  UNL1        0.1452
     15 H         138.2582  139.5303  170.5713 H       1  UNL1        0.1452
     16 C         141.0193  140.2258  161.4760 C.ar    1  UNL1        0.1413
     17 C         142.4947  140.1442  161.2184 C.ar    1  UNL1        0.0603
     18 S         142.9411  141.4622  160.6585 S.2     1  UNL1       -0.0701
     19 C         141.7415  142.3584  160.5700 C.ar    1  UNL1        0.0888
     20 C         141.7314  143.7708  160.0650 C.3     1  UNL1        0.0594
     21 N         140.5538  141.5942  161.0753 N.ar    1  UNL1       -0.2381
     22 N         141.2727  142.4305  166.1745 N.pl3   1  UNL1       -0.3197
     23 H         142.2305  142.4682  166.3990 H       1  UNL1        0.1481
     24 C         140.6725  143.4677  165.2724 C.3     1  UNL1        0.0728
     25 C         139.3912  144.1460  165.6576 C.3     1  UNL1        0.0196
     26 C         137.7355  142.7760  164.1974 C.3     1  UNL1        0.0001
     27 C         138.2085  144.0935  164.7365 C.3     1  UNL1        0.0017
     28 C         141.3535  143.8267  163.9850 C.3     1  UNL1        0.0512
     29 C         141.7939  145.2391  163.7379 C.3     1  UNL1        0.1389
     30 O         140.9578  146.1472  162.8857 O.3     1  UNL1       -0.3819
     31 H         140.9499  145.8177  161.9734 H       1  UNL1        0.2104
@<TRIPOS>BOND
     1    26    27    1
     2    27    25    1
     3    24    25    1
     4    24    28    1
     5    28    29    1
     6    29    30    1
     7    24    22    1
     8    22     1    1
     9     1     2   ar
    10     2     3   ar
    11     3     4    1
    12     3     5   ar
    13     5     6   ar
    14     6     7   ar
    15     7     8    1
    16     8     9    1
    17     9    10   am
    18    10    11    2
    19    10    16    1
    20    16    17   ar
    21    17    18   ar
    22    18    19   ar
    23    19    20    1
    24    19    21   ar
    25     9    12    1
    26    12    13    1
    27     7     1   ar
    28    21    16   ar
    29    13     6    1
    30    30    31    1
    31    22    23    1
    32     4    14    1
    33     4    15    1
