@<TRIPOS>MOLECULE
*****
 36 39 0 0 0
SMALL
GASTEIGER

@<TRIPOS>ATOM
      1 C         137.7051  140.6991  161.6436 C.3     1  UNL1        0.2722
      2 O         140.1098  140.9518  160.6932 O.2     1  UNL1       -0.2707
      3 C         138.7241  141.4940  160.8822 C.2     1  UNL1        0.2701
      4 N         138.3574  142.8311  160.3098 N.am    1  UNL1       -0.2663
      5 H         137.4479  143.1870  160.4338 H       1  UNL1        0.1564
      6 C         139.3764  143.6260  159.5484 C.ar    1  UNL1        0.1344
      7 C         139.7002  143.2663  158.1286 C.ar    1  UNL1        0.0368
      8 C         140.7192  144.0612  157.3672 C.ar    1  UNL1        0.0341
      9 C         141.4144  145.2159  158.0256 C.ar    1  UNL1        0.1593
     10 F         142.4334  146.0108  157.2642 F       1  UNL1       -0.2025
     11 C         141.0906  145.5756  159.4454 C.ar    1  UNL1        0.1298
     12 N         140.0716  144.7806  160.2068 N.ar    1  UNL1       -0.2267
     13 C         137.3072  139.3347  161.1642 C.3     1  UNL1        0.1952
     14 O         138.2990  138.2098  161.1959 O.3     1  UNL1       -0.3467
     15 C         138.9254  137.7987  162.4954 C.3     1  UNL1        0.1740
     16 C         140.4087  137.9181  162.6839 C.3     1  UNL1        0.1692
     17 O         141.2328  136.6920  162.9439 O.3     1  UNL1       -0.3794
     18 H         140.9897  136.3155  163.8041 H       1  UNL1        0.2105
     19 O         137.0839  141.2688  162.8845 O.3     1  UNL1       -0.4517
     20 C         137.9127  142.0859  163.8308 C.ar    1  UNL1        0.2312
     21 N         138.0202  143.5703  163.6438 N.ar    1  UNL1       -0.1892
     22 C         138.8489  144.3873  164.5901 C.ar    1  UNL1        0.2029
     23 N         139.5701  143.7200  165.7235 N.ar    1  UNL1       -0.2046
     24 C         139.4625  142.2357  165.9106 C.ar    1  UNL1        0.1716
     25 C         138.6338  141.4186  164.9643 C.ar    1  UNL1        0.1098
     26 C         138.7146  139.9846  165.3969 C.ar    1  UNL1        0.1283
     27 N         139.5932  139.9154  166.6106 N.ar    1  UNL1       -0.1619
     28 N         140.0555  141.3067  166.9281 N.ar    1  UNL1       -0.2089
     29 C         140.9531  141.6999  168.0637 C.ar    1  UNL1        0.1222
     30 C         140.4218  141.7234  169.4662 C.ar    1  UNL1        0.1585
     31 F         138.9928  141.3537  169.7332 F       1  UNL1       -0.2026
     32 C         141.3194  142.1167  170.6019 C.ar    1  UNL1        0.0313
     33 C         142.7484  142.4864  170.3350 C.ar    1  UNL1        0.0033
     34 C         143.2797  142.4628  168.9324 C.ar    1  UNL1        0.0131
     35 C         142.3821  142.0696  167.7968 C.ar    1  UNL1        0.0776
     36 CL        142.9135  142.0461  166.3943 Cl      1  UNL1       -0.0806
@<TRIPOS>BOND
     1     2     3    2
     2     3     4   am
     3     4     6    1
     4     6     7   ar
     5     7     8   ar
     6     8     9   ar
     7     9    10    1
     8     9    11   ar
     9    11    12   ar
    10     3     1    1
    11     1    13    1
    12    13    14    1
    13    14    15    1
    14    15    16    1
    15    16    17    1
    16     1    19    1
    17    19    20    1
    18    20    21   ar
    19    21    22   ar
    20    22    23   ar
    21    23    24   ar
    22    24    25   ar
    23    25    26   ar
    24    26    27   ar
    25    27    28   ar
    26    28    29    1
    27    29    30   ar
    28    30    31    1
    29    30    32   ar
    30    32    33   ar
    31    33    34   ar
    32    34    35   ar
    33    35    36    1
    34    12     6   ar
    35    25    20   ar
    36    35    29   ar
    37    28    24   ar
    38     4     5    1
    39    17    18    1
@<TRIPOS>MOLECULE
*****
 36 39 0 0 0
SMALL
GASTEIGER

@<TRIPOS>ATOM
      1 C         141.6525  139.0512  162.0035 C.3     1  UNL1        0.2722
      2 O         140.1077  140.5856  160.5860 O.2     1  UNL1       -0.2707
      3 C         141.0889  140.4093  161.7067 C.2     1  UNL1        0.2701
      4 N         141.5066  141.5911  162.5308 N.am    1  UNL1       -0.2663
      5 H         142.1506  141.4753  163.2664 H       1  UNL1        0.1564
      6 C         140.9430  142.9491  162.2340 C.ar    1  UNL1        0.1344
      7 C         139.8436  143.5079  163.0879 C.ar    1  UNL1        0.0368
      8 C         139.2801  144.8659  162.7911 C.ar    1  UNL1        0.0341
      9 C         139.8160  145.6653  161.6405 C.ar    1  UNL1        0.1593
     10 F         139.2525  147.0233  161.3437 F       1  UNL1       -0.2025
     11 C         140.9154  145.1065  160.7866 C.ar    1  UNL1        0.1298
     12 N         141.4789  143.7484  161.0834 N.ar    1  UNL1       -0.2267
     13 C         142.9661  138.6380  161.4089 C.3     1  UNL1        0.1952
     14 O         144.2495  139.1229  162.0153 O.3     1  UNL1       -0.3467
     15 C         144.6542  140.5595  161.8653 C.3     1  UNL1        0.1740
     16 C         145.0600  141.3542  163.0710 C.3     1  UNL1        0.1692
     17 O         146.4811  141.8084  163.2264 O.3     1  UNL1       -0.3794
     18 H         147.0568  141.0360  163.3397 H       1  UNL1        0.2105
     19 O         140.9024  138.1064  162.8949 O.3     1  UNL1       -0.4517
     20 C         140.2505  138.6143  164.1468 C.ar    1  UNL1        0.2312
     21 N         138.7743  138.4398  164.3477 N.ar    1  UNL1       -0.1892
     22 C         138.1225  138.9477  165.5995 C.ar    1  UNL1        0.2029
     23 N         138.9469  139.6302  166.6505 N.ar    1  UNL1       -0.2046
     24 C         140.4231  139.8048  166.4496 C.ar    1  UNL1        0.1716
     25 C         141.0749  139.2968  165.1978 C.ar    1  UNL1        0.1098
     26 C         142.5396  139.6104  165.2778 C.ar    1  UNL1        0.1283
     27 N         142.7930  140.3122  166.5790 N.ar    1  UNL1       -0.1619
     28 N         141.4849  140.4323  167.3033 N.ar    1  UNL1       -0.2089
     29 C         141.2754  141.0683  168.6455 C.ar    1  UNL1        0.1222
     30 C         140.6203  142.4140  168.7438 C.ar    1  UNL1        0.1585
     31 F         140.1745  143.1239  167.4998 F       1  UNL1       -0.2026
     32 C         140.4108  143.0500  170.0861 C.ar    1  UNL1        0.0313
     33 C         140.8565  142.3402  171.3301 C.ar    1  UNL1        0.0033
     34 C         141.5116  140.9945  171.2318 C.ar    1  UNL1        0.0131
     35 C         141.7211  140.3585  169.8895 C.ar    1  UNL1        0.0776
     36 CL        142.3763  139.0128  169.7913 Cl      1  UNL1       -0.0806
@<TRIPOS>BOND
     1     2     3    2
     2     3     4   am
     3     4     6    1
     4     6     7   ar
     5     7     8   ar
     6     8     9   ar
     7     9    10    1
     8     9    11   ar
     9    11    12   ar
    10     3     1    1
    11     1    13    1
    12    13    14    1
    13    14    15    1
    14    15    16    1
    15    16    17    1
    16     1    19    1
    17    19    20    1
    18    20    21   ar
    19    21    22   ar
    20    22    23   ar
    21    23    24   ar
    22    24    25   ar
    23    25    26   ar
    24    26    27   ar
    25    27    28   ar
    26    28    29    1
    27    29    30   ar
    28    30    31    1
    29    30    32   ar
    30    32    33   ar
    31    33    34   ar
    32    34    35   ar
    33    35    36    1
    34    12     6   ar
    35    25    20   ar
    36    35    29   ar
    37    28    24   ar
    38     4     5    1
    39    17    18    1
@<TRIPOS>MOLECULE
*****
 36 39 0 0 0
SMALL
GASTEIGER

@<TRIPOS>ATOM
      1 C         137.9089  140.7950  161.5512 C.3     1  UNL1        0.2722
      2 O         140.0716  140.9004  160.1153 O.2     1  UNL1       -0.2707
      3 C         138.8447  141.5643  160.6665 C.2     1  UNL1        0.2701
      4 N         138.5535  142.9975  160.3331 N.am    1  UNL1       -0.2663
      5 H         137.7482  143.4332  160.6949 H       1  UNL1        0.1564
      6 C         139.4892  143.7667  159.4485 C.ar    1  UNL1        0.1344
      7 C         139.4643  143.5525  157.9641 C.ar    1  UNL1        0.0368
      8 C         140.4000  144.3218  157.0794 C.ar    1  UNL1        0.0341
      9 C         141.3607  145.3054  157.6792 C.ar    1  UNL1        0.1593
     10 F         142.2964  146.0747  156.7946 F       1  UNL1       -0.2025
     11 C         141.3856  145.5196  159.1636 C.ar    1  UNL1        0.1298
     12 N         140.4498  144.7503  160.0483 N.ar    1  UNL1       -0.2267
     13 C         137.6636  139.3374  161.2959 C.3     1  UNL1        0.1952
     14 O         137.7513  138.3532  162.4245 O.3     1  UNL1       -0.3467
     15 C         139.0192  137.5847  162.6527 C.3     1  UNL1        0.1740
     16 C         140.2802  137.9927  161.9502 C.3     1  UNL1        0.1692
     17 O         141.5196  137.1594  162.0896 O.3     1  UNL1       -0.3794
     18 H         141.8284  137.1905  163.0086 H       1  UNL1        0.2105
     19 O         137.2184  141.4834  162.6911 O.3     1  UNL1       -0.4517
     20 C         138.0223  142.2303  163.7139 C.ar    1  UNL1        0.2312
     21 N         138.1574  143.7211  163.6190 N.ar    1  UNL1       -0.1892
     22 C         138.9612  144.4679  164.6417 C.ar    1  UNL1        0.2029
     23 N         139.6300  143.7239  165.7594 N.ar    1  UNL1       -0.2046
     24 C         139.4949  142.2330  165.8543 C.ar    1  UNL1        0.1716
     25 C         138.6911  141.4862  164.8315 C.ar    1  UNL1        0.1098
     26 C         138.7357  140.0282  165.1813 C.ar    1  UNL1        0.1283
     27 N         139.5671  139.8739  166.4202 N.ar    1  UNL1       -0.1619
     28 N         140.0363  141.2366  166.8361 N.ar    1  UNL1       -0.2089
     29 C         140.8960  141.5482  168.0252 C.ar    1  UNL1        0.1222
     30 C         142.2627  142.1345  167.8296 C.ar    1  UNL1        0.1585
     31 F         142.7698  142.4093  166.4448 F       1  UNL1       -0.2026
     32 C         143.1224  142.4461  169.0186 C.ar    1  UNL1        0.0313
     33 C         142.6154  142.1713  170.4033 C.ar    1  UNL1        0.0033
     34 C         141.2487  141.5850  170.5989 C.ar    1  UNL1        0.0131
     35 C         140.3890  141.2734  169.4099 C.ar    1  UNL1        0.0776
     36 CL        139.0223  140.6871  169.6056 Cl      1  UNL1       -0.0806
@<TRIPOS>BOND
     1     2     3    2
     2     3     4   am
     3     4     6    1
     4     6     7   ar
     5     7     8   ar
     6     8     9   ar
     7     9    10    1
     8     9    11   ar
     9    11    12   ar
    10     3     1    1
    11     1    13    1
    12    13    14    1
    13    14    15    1
    14    15    16    1
    15    16    17    1
    16     1    19    1
    17    19    20    1
    18    20    21   ar
    19    21    22   ar
    20    22    23   ar
    21    23    24   ar
    22    24    25   ar
    23    25    26   ar
    24    26    27   ar
    25    27    28   ar
    26    28    29    1
    27    29    30   ar
    28    30    31    1
    29    30    32   ar
    30    32    33   ar
    31    33    34   ar
    32    34    35   ar
    33    35    36    1
    34    12     6   ar
    35    25    20   ar
    36    35    29   ar
    37    28    24   ar
    38     4     5    1
    39    17    18    1
@<TRIPOS>MOLECULE
*****
 36 39 0 0 0
SMALL
GASTEIGER

@<TRIPOS>ATOM
      1 C         141.6099  139.0791  158.5677 C.3     1  UNL1        0.2722
      2 O         140.4144  137.3594  157.0304 O.2     1  UNL1       -0.2707
      3 C         141.6578  137.8476  157.7127 C.2     1  UNL1        0.2701
      4 N         142.9491  137.1042  157.5400 N.am    1  UNL1       -0.2663
      5 H         143.7652  137.4246  157.9878 H       1  UNL1        0.1564
      6 C         142.9971  135.8727  156.6850 C.ar    1  UNL1        0.1344
      7 C         143.3139  134.5429  157.3024 C.ar    1  UNL1        0.0368
      8 C         143.3619  133.3114  156.4474 C.ar    1  UNL1        0.0341
      9 C         143.0930  133.4097  154.9750 C.ar    1  UNL1        0.1593
     10 F         143.1409  132.1782  154.1200 F       1  UNL1       -0.2025
     11 C         142.7761  134.7395  154.3576 C.ar    1  UNL1        0.1298
     12 N         142.7281  135.9710  155.2126 N.ar    1  UNL1       -0.2267
     13 C         142.8140  139.9675  158.6713 C.3     1  UNL1        0.1952
     14 O         144.0505  139.4770  159.3645 O.3     1  UNL1       -0.3467
     15 C         144.0408  139.2553  160.8480 C.3     1  UNL1        0.1740
     16 C         143.9948  137.8603  161.3975 C.3     1  UNL1        0.1692
     17 O         143.3177  136.7702  160.6208 O.3     1  UNL1       -0.3794
     18 H         142.3669  136.9547  160.5664 H       1  UNL1        0.2105
     19 O         140.3578  139.4222  159.3191 O.3     1  UNL1       -0.4517
     20 C         140.4438  140.1558  160.6248 C.ar    1  UNL1        0.2312
     21 N         140.5263  141.6534  160.6396 N.ar    1  UNL1       -0.1892
     22 C         140.6123  142.3868  161.9452 C.ar    1  UNL1        0.2029
     23 N         140.6159  141.6226  163.2360 N.ar    1  UNL1       -0.2046
     24 C         140.5335  140.1250  163.2211 C.ar    1  UNL1        0.1716
     25 C         140.4474  139.3916  161.9155 C.ar    1  UNL1        0.1098
     26 C         140.3775  137.9229  162.2126 C.ar    1  UNL1        0.1283
     27 N         140.4204  137.7487  163.7018 N.ar    1  UNL1       -0.1619
     28 N         140.5168  139.1097  164.3251 N.ar    1  UNL1       -0.2089
     29 C         140.5845  139.4037  165.7944 C.ar    1  UNL1        0.1222
     30 C         139.3262  139.6786  166.5631 C.ar    1  UNL1        0.1585
     31 F         138.0000  139.6595  165.8625 F       1  UNL1       -0.2026
     32 C         139.3939  139.9727  168.0325 C.ar    1  UNL1        0.0313
     33 C         140.7201  139.9918  168.7331 C.ar    1  UNL1        0.0033
     34 C         141.9784  139.7169  167.9644 C.ar    1  UNL1        0.0131
     35 C         141.9107  139.4229  166.4951 C.ar    1  UNL1        0.0776
     36 CL        143.1691  139.1480  165.7265 Cl      1  UNL1       -0.0806
@<TRIPOS>BOND
     1     2     3    2
     2     3     4   am
     3     4     6    1
     4     6     7   ar
     5     7     8   ar
     6     8     9   ar
     7     9    10    1
     8     9    11   ar
     9    11    12   ar
    10     3     1    1
    11     1    13    1
    12    13    14    1
    13    14    15    1
    14    15    16    1
    15    16    17    1
    16     1    19    1
    17    19    20    1
    18    20    21   ar
    19    21    22   ar
    20    22    23   ar
    21    23    24   ar
    22    24    25   ar
    23    25    26   ar
    24    26    27   ar
    25    27    28   ar
    26    28    29    1
    27    29    30   ar
    28    30    31    1
    29    30    32   ar
    30    32    33   ar
    31    33    34   ar
    32    34    35   ar
    33    35    36    1
    34    12     6   ar
    35    25    20   ar
    36    35    29   ar
    37    28    24   ar
    38     4     5    1
    39    17    18    1
@<TRIPOS>MOLECULE
*****
 36 39 0 0 0
SMALL
GASTEIGER

@<TRIPOS>ATOM
      1 C         139.4598  138.0578  161.6029 C.3     1  UNL1        0.2722
      2 O         139.3350  138.8509  159.1320 O.2     1  UNL1       -0.2707
      3 C         140.1415  138.3824  160.3067 C.2     1  UNL1        0.2701
      4 N         141.6296  138.2384  160.1854 N.am    1  UNL1       -0.2663
      5 H         142.1589  137.9309  160.9564 H       1  UNL1        0.1564
      6 C         142.3113  138.5629  158.8893 C.ar    1  UNL1        0.1344
      7 C         142.8966  139.9266  158.6706 C.ar    1  UNL1        0.0368
      8 C         143.5783  140.2512  157.3745 C.ar    1  UNL1        0.0341
      9 C         143.6747  139.2120  156.2970 C.ar    1  UNL1        0.1593
     10 F         144.3564  139.5366  155.0009 F       1  UNL1       -0.2025
     11 C         143.0894  137.8483  156.5156 C.ar    1  UNL1        0.1298
     12 N         142.4077  137.5238  157.8118 N.ar    1  UNL1       -0.2267
     13 C         138.0332  138.4655  161.8227 C.3     1  UNL1        0.1952
     14 O         137.7208  139.7377  162.5534 O.3     1  UNL1       -0.3467
     15 C         138.5851  140.9477  162.3559 C.3     1  UNL1        0.1740
     16 C         138.1991  141.9885  161.3470 C.3     1  UNL1        0.1692
     17 O         137.5197  143.2493  161.7926 O.3     1  UNL1       -0.3794
     18 H         136.6432  143.0357  162.1489 H       1  UNL1        0.2105
     19 O         140.2049  137.3254  162.6793 O.3     1  UNL1       -0.4517
     20 C         141.1821  138.0605  163.5481 C.ar    1  UNL1        0.2312
     21 N         142.6160  138.1841  163.1255 N.ar    1  UNL1       -0.1892
     22 C         143.5932  138.9191  163.9943 C.ar    1  UNL1        0.2029
     23 N         143.1365  139.5305  165.2857 N.ar    1  UNL1       -0.2046
     24 C         141.7026  139.4068  165.7083 C.ar    1  UNL1        0.1716
     25 C         140.7254  138.6718  164.8395 C.ar    1  UNL1        0.1098
     26 C         139.3852  138.7124  165.5122 C.ar    1  UNL1        0.1283
     27 N         139.5342  139.4725  166.7967 N.ar    1  UNL1       -0.1619
     28 N         140.9664  139.9016  166.9179 N.ar    1  UNL1       -0.2089
     29 C         141.5585  140.6877  168.0500 C.ar    1  UNL1        0.1222
     30 C         142.4947  140.0233  169.0154 C.ar    1  UNL1        0.1585
     31 F         142.8389  138.5729  168.8488 F       1  UNL1       -0.2026
     32 C         143.0867  140.8094  170.1475 C.ar    1  UNL1        0.0313
     33 C         142.7426  142.2598  170.3141 C.ar    1  UNL1        0.0033
     34 C         141.8064  142.9241  169.3487 C.ar    1  UNL1        0.0131
     35 C         141.2143  142.1381  168.2166 C.ar    1  UNL1        0.0776
     36 CL        140.2781  142.8025  167.2512 Cl      1  UNL1       -0.0806
@<TRIPOS>BOND
     1     2     3    2
     2     3     4   am
     3     4     6    1
     4     6     7   ar
     5     7     8   ar
     6     8     9   ar
     7     9    10    1
     8     9    11   ar
     9    11    12   ar
    10     3     1    1
    11     1    13    1
    12    13    14    1
    13    14    15    1
    14    15    16    1
    15    16    17    1
    16     1    19    1
    17    19    20    1
    18    20    21   ar
    19    21    22   ar
    20    22    23   ar
    21    23    24   ar
    22    24    25   ar
    23    25    26   ar
    24    26    27   ar
    25    27    28   ar
    26    28    29    1
    27    29    30   ar
    28    30    31    1
    29    30    32   ar
    30    32    33   ar
    31    33    34   ar
    32    34    35   ar
    33    35    36    1
    34    12     6   ar
    35    25    20   ar
    36    35    29   ar
    37    28    24   ar
    38     4     5    1
    39    17    18    1
@<TRIPOS>MOLECULE
*****
 36 39 0 0 0
SMALL
GASTEIGER

@<TRIPOS>ATOM
      1 C         141.0598  143.8963  159.5006 C.3     1  UNL1        0.2722
      2 O         142.1500  145.9408  158.3253 O.2     1  UNL1       -0.2707
      3 C         141.0414  144.9347  158.4183 C.2     1  UNL1        0.2701
      4 N         139.9144  144.9669  157.4289 N.am    1  UNL1       -0.2663
      5 H         139.1868  144.3065  157.4899 H       1  UNL1        0.1564
      6 C         139.8959  146.0053  156.3466 C.ar    1  UNL1        0.1344
      7 C         140.6572  145.7763  155.0746 C.ar    1  UNL1        0.0368
      8 C         140.6388  146.8147  153.9923 C.ar    1  UNL1        0.0341
      9 C         139.8590  148.0820  154.1820 C.ar    1  UNL1        0.1593
     10 F         139.8406  149.1204  153.0997 F       1  UNL1       -0.2025
     11 C         139.0977  148.3110  155.4540 C.ar    1  UNL1        0.1298
     12 N         139.1162  147.2725  156.5363 N.ar    1  UNL1       -0.2267
     13 C         139.7732  143.3009  159.9907 C.3     1  UNL1        0.1952
     14 O         138.8650  144.1023  160.8756 O.3     1  UNL1       -0.3467
     15 C         139.0389  144.0586  162.3649 C.3     1  UNL1        0.1740
     16 C         139.5583  145.2616  163.0950 C.3     1  UNL1        0.1692
     17 O         140.4726  146.2249  162.3980 O.3     1  UNL1       -0.3794
     18 H         141.3122  145.7839  162.1940 H       1  UNL1        0.2105
     19 O         142.3648  143.4532  160.0928 O.3     1  UNL1       -0.4517
     20 C         142.5594  143.4752  161.5800 C.ar    1  UNL1        0.2312
     21 N         143.1547  144.6831  162.2407 N.ar    1  UNL1       -0.1892
     22 C         143.3493  144.7050  163.7279 C.ar    1  UNL1        0.2029
     23 N         142.9487  143.5190  164.5543 N.ar    1  UNL1       -0.2046
     24 C         142.3534  142.3111  163.8935 C.ar    1  UNL1        0.1716
     25 C         142.1588  142.2892  162.4064 C.ar    1  UNL1        0.1098
     26 C         141.5518  140.9679  162.0377 C.ar    1  UNL1        0.1283
     27 N         141.3713  140.1733  163.2970 N.ar    1  UNL1       -0.1619
     28 N         141.8667  141.0034  164.4440 N.ar    1  UNL1       -0.2089
     29 C         141.8742  140.5972  165.8879 C.ar    1  UNL1        0.1222
     30 C         140.9079  141.2244  166.8485 C.ar    1  UNL1        0.1585
     31 F         139.9340  142.2579  166.3652 F       1  UNL1       -0.2026
     32 C         140.9153  140.8182  168.2924 C.ar    1  UNL1        0.0313
     33 C         141.8891  139.7846  168.7758 C.ar    1  UNL1        0.0033
     34 C         142.8554  139.1574  167.8152 C.ar    1  UNL1        0.0131
     35 C         142.8479  139.5637  166.3713 C.ar    1  UNL1        0.0776
     36 CL        143.8143  138.9364  165.4107 Cl      1  UNL1       -0.0806
@<TRIPOS>BOND
     1     2     3    2
     2     3     4   am
     3     4     6    1
     4     6     7   ar
     5     7     8   ar
     6     8     9   ar
     7     9    10    1
     8     9    11   ar
     9    11    12   ar
    10     3     1    1
    11     1    13    1
    12    13    14    1
    13    14    15    1
    14    15    16    1
    15    16    17    1
    16     1    19    1
    17    19    20    1
    18    20    21   ar
    19    21    22   ar
    20    22    23   ar
    21    23    24   ar
    22    24    25   ar
    23    25    26   ar
    24    26    27   ar
    25    27    28   ar
    26    28    29    1
    27    29    30   ar
    28    30    31    1
    29    30    32   ar
    30    32    33   ar
    31    33    34   ar
    32    34    35   ar
    33    35    36    1
    34    12     6   ar
    35    25    20   ar
    36    35    29   ar
    37    28    24   ar
    38     4     5    1
    39    17    18    1
@<TRIPOS>MOLECULE
*****
 36 39 0 0 0
SMALL
GASTEIGER

@<TRIPOS>ATOM
      1 C         144.5933  140.3681  164.2523 C.3     1  UNL1        0.2722
      2 O         143.3930  141.9220  165.9536 O.2     1  UNL1       -0.2707
      3 C         143.7269  140.5441  165.4641 C.2     1  UNL1        0.2701
      4 N         143.1945  139.3420  166.1863 N.am    1  UNL1       -0.2663
      5 H         143.4136  138.4376  165.8650 H       1  UNL1        0.1564
      6 C         142.3281  139.5180  167.3981 C.ar    1  UNL1        0.1344
      7 C         140.8960  139.9360  167.2420 C.ar    1  UNL1        0.0368
      8 C         140.0297  140.1120  168.4537 C.ar    1  UNL1        0.0341
      9 C         140.5954  139.8698  169.8217 C.ar    1  UNL1        0.1593
     10 F         139.7291  140.0458  171.0335 F       1  UNL1       -0.2025
     11 C         142.0275  139.4518  169.9779 C.ar    1  UNL1        0.1298
     12 N         142.8938  139.2758  168.7660 N.ar    1  UNL1       -0.2267
     13 C         145.4578  141.4983  163.7778 C.3     1  UNL1        0.1952
     14 O         145.0675  142.2804  162.5587 O.3     1  UNL1       -0.3467
     15 C         143.6239  142.5956  162.3002 C.3     1  UNL1        0.1740
     16 C         143.0125  143.8378  162.8772 C.3     1  UNL1        0.1692
     17 O         142.9340  145.0880  162.0522 O.3     1  UNL1       -0.3794
     18 H         143.8298  145.4153  161.8750 H       1  UNL1        0.2105
     19 O         144.5952  139.0618  163.5150 O.3     1  UNL1       -0.4517
     20 C         143.3749  138.6252  162.7596 C.ar    1  UNL1        0.2312
     21 N         142.2260  137.9957  163.4901 N.ar    1  UNL1       -0.1892
     22 C         141.0059  137.5591  162.7347 C.ar    1  UNL1        0.2029
     23 N         140.9346  137.7520  161.2489 N.ar    1  UNL1       -0.2046
     24 C         142.0836  138.3815  160.5184 C.ar    1  UNL1        0.1716
     25 C         143.3037  138.8181  161.2738 C.ar    1  UNL1        0.1098
     26 C         144.2726  139.4046  160.2902 C.ar    1  UNL1        0.1283
     27 N         143.6512  139.3305  158.9270 N.ar    1  UNL1       -0.1619
     28 N         142.2983  138.6982  159.0680 N.ar    1  UNL1       -0.2089
     29 C         141.3302  138.4297  157.9543 C.ar    1  UNL1        0.1222
     30 C         140.1307  139.3122  157.7740 C.ar    1  UNL1        0.1585
     31 F         139.8994  140.4632  158.7077 F       1  UNL1       -0.2026
     32 C         139.1625  139.0437  156.6603 C.ar    1  UNL1        0.0313
     33 C         139.3938  137.8926  155.7266 C.ar    1  UNL1        0.0033
     34 C         140.5932  137.0102  155.9068 C.ar    1  UNL1        0.0131
     35 C         141.5614  137.2787  157.0206 C.ar    1  UNL1        0.0776
     36 CL        142.7609  136.3962  157.2008 Cl      1  UNL1       -0.0806
@<TRIPOS>BOND
     1     2     3    2
     2     3     4   am
     3     4     6    1
     4     6     7   ar
     5     7     8   ar
     6     8     9   ar
     7     9    10    1
     8     9    11   ar
     9    11    12   ar
    10     3     1    1
    11     1    13    1
    12    13    14    1
    13    14    15    1
    14    15    16    1
    15    16    17    1
    16     1    19    1
    17    19    20    1
    18    20    21   ar
    19    21    22   ar
    20    22    23   ar
    21    23    24   ar
    22    24    25   ar
    23    25    26   ar
    24    26    27   ar
    25    27    28   ar
    26    28    29    1
    27    29    30   ar
    28    30    31    1
    29    30    32   ar
    30    32    33   ar
    31    33    34   ar
    32    34    35   ar
    33    35    36    1
    34    12     6   ar
    35    25    20   ar
    36    35    29   ar
    37    28    24   ar
    38     4     5    1
    39    17    18    1
@<TRIPOS>MOLECULE
*****
 36 39 0 0 0
SMALL
GASTEIGER

@<TRIPOS>ATOM
      1 C         140.6546  143.9860  159.5185 C.3     1  UNL1        0.2722
      2 O         138.2799  142.9322  159.5463 O.2     1  UNL1       -0.2707
      3 C         139.4956  143.3754  158.7877 C.2     1  UNL1        0.2701
      4 N         139.5524  143.2080  157.2981 N.am    1  UNL1       -0.2663
      5 H         140.3503  143.4989  156.8002 H       1  UNL1        0.1564
      6 C         138.3936  142.5975  156.5672 C.ar    1  UNL1        0.1344
      7 C         137.4067  143.4768  155.8581 C.ar    1  UNL1        0.0368
      8 C         136.2479  142.8662  155.1272 C.ar    1  UNL1        0.0341
      9 C         136.0758  141.3762  155.1055 C.ar    1  UNL1        0.1593
     10 F         134.9170  140.7656  154.3746 F       1  UNL1       -0.2025
     11 C         137.0627  140.4969  155.8146 C.ar    1  UNL1        0.1298
     12 N         138.2216  141.1075  156.5455 N.ar    1  UNL1       -0.2267
     13 C         140.6574  145.4539  159.8269 C.3     1  UNL1        0.1952
     14 O         139.5843  146.0398  160.6959 O.3     1  UNL1       -0.3467
     15 C         139.6457  145.8646  162.1844 C.3     1  UNL1        0.1740
     16 C         138.8179  144.8053  162.8496 C.3     1  UNL1        0.1692
     17 O         137.6671  144.1822  162.1165 O.3     1  UNL1       -0.3794
     18 H         136.9816  144.8510  161.9626 H       1  UNL1        0.2105
     19 O         141.8106  143.1286  159.9410 O.3     1  UNL1       -0.4517
     20 C         142.3473  143.2286  161.3382 C.ar    1  UNL1        0.2312
     21 N         143.5488  144.0808  161.6209 N.ar    1  UNL1       -0.1892
     22 C         144.0855  144.1807  163.0180 C.ar    1  UNL1        0.2029
     23 N         143.4206  143.4284  164.1324 N.ar    1  UNL1       -0.2046
     24 C         142.2190  142.5761  163.8497 C.ar    1  UNL1        0.1716
     25 C         141.6824  142.4762  162.4526 C.ar    1  UNL1        0.1098
     26 C         140.4917  141.5642  162.4774 C.ar    1  UNL1        0.1283
     27 N         140.2924  141.1005  163.8900 N.ar    1  UNL1       -0.1619
     28 N         141.3600  141.7259  164.7380 N.ar    1  UNL1       -0.2089
     29 C         141.5374  141.5347  166.2152 C.ar    1  UNL1        0.1222
     30 C         140.8529  142.4583  167.1786 C.ar    1  UNL1        0.1585
     31 F         139.9909  143.5733  166.6650 F       1  UNL1       -0.2026
     32 C         141.0303  142.2670  168.6558 C.ar    1  UNL1        0.0313
     33 C         141.8923  141.1521  169.1695 C.ar    1  UNL1        0.0033
     34 C         142.5768  140.2285  168.2061 C.ar    1  UNL1        0.0131
     35 C         142.3994  140.4197  166.7289 C.ar    1  UNL1        0.0776
     36 CL        143.0840  139.4961  165.7655 Cl      1  UNL1       -0.0806
@<TRIPOS>BOND
     1     2     3    2
     2     3     4   am
     3     4     6    1
     4     6     7   ar
     5     7     8   ar
     6     8     9   ar
     7     9    10    1
     8     9    11   ar
     9    11    12   ar
    10     3     1    1
    11     1    13    1
    12    13    14    1
    13    14    15    1
    14    15    16    1
    15    16    17    1
    16     1    19    1
    17    19    20    1
    18    20    21   ar
    19    21    22   ar
    20    22    23   ar
    21    23    24   ar
    22    24    25   ar
    23    25    26   ar
    24    26    27   ar
    25    27    28   ar
    26    28    29    1
    27    29    30   ar
    28    30    31    1
    29    30    32   ar
    30    32    33   ar
    31    33    34   ar
    32    34    35   ar
    33    35    36    1
    34    12     6   ar
    35    25    20   ar
    36    35    29   ar
    37    28    24   ar
    38     4     5    1
    39    17    18    1
@<TRIPOS>MOLECULE
*****
 36 39 0 0 0
SMALL
GASTEIGER

@<TRIPOS>ATOM
      1 C         140.3898  144.9839  161.2016 C.3     1  UNL1        0.2722
      2 O         138.1245  143.7370  161.4533 O.2     1  UNL1       -0.2707
      3 C         139.6192  143.7037  161.3333 C.2     1  UNL1        0.2701
      4 N         140.3435  142.3902  161.3449 N.am    1  UNL1       -0.2663
      5 H         141.3246  142.3683  161.2661 H       1  UNL1        0.1564
      6 C         139.5730  141.1100  161.4765 C.ar    1  UNL1        0.1344
      7 C         139.2004  140.5952  162.8353 C.ar    1  UNL1        0.0368
      8 C         138.4299  139.3150  162.9669 C.ar    1  UNL1        0.0341
      9 C         138.0319  138.5495  161.7398 C.ar    1  UNL1        0.1593
     10 F         137.2614  137.2693  161.8715 F       1  UNL1       -0.2025
     11 C         138.4045  139.0643  160.3811 C.ar    1  UNL1        0.1298
     12 N         139.1750  140.3446  160.2494 N.ar    1  UNL1       -0.2267
     13 C         140.5481  145.6291  159.8568 C.3     1  UNL1        0.1952
     14 O         141.8747  145.5904  159.1578 O.3     1  UNL1       -0.3467
     15 C         142.1700  144.5016  158.1692 C.3     1  UNL1        0.1740
     16 C         143.1380  143.4112  158.5214 C.3     1  UNL1        0.1692
     17 O         144.3983  143.2413  157.7260 O.3     1  UNL1       -0.3794
     18 H         144.1756  142.9743  156.8204 H       1  UNL1        0.2105
     19 O         141.0022  145.6188  162.4148 O.3     1  UNL1       -0.4517
     20 C         141.8689  144.8058  163.3302 C.ar    1  UNL1        0.2312
     21 N         143.3531  144.7641  163.1169 N.ar    1  UNL1       -0.1892
     22 C         144.2197  143.9511  164.0322 C.ar    1  UNL1        0.2029
     23 N         143.6022  143.1797  165.1608 N.ar    1  UNL1       -0.2046
     24 C         142.1181  143.2214  165.3741 C.ar    1  UNL1        0.1716
     25 C         141.2514  144.0344  164.4587 C.ar    1  UNL1        0.1098
     26 C         139.8295  143.8850  164.9127 C.ar    1  UNL1        0.1283
     27 N         139.8175  142.9796  166.1085 N.ar    1  UNL1       -0.1619
     28 N         141.2319  142.5695  166.3937 N.ar    1  UNL1       -0.2089
     29 C         141.6812  141.6661  167.5036 C.ar    1  UNL1        0.1222
     30 C         141.6606  142.1532  168.9221 C.ar    1  UNL1        0.1585
     31 F         141.1906  143.5439  169.2308 F       1  UNL1       -0.2026
     32 C         142.1099  141.2498  170.0320 C.ar    1  UNL1        0.0313
     33 C         142.5799  139.8591  169.7234 C.ar    1  UNL1        0.0033
     34 C         142.6005  139.3720  168.3049 C.ar    1  UNL1        0.0131
     35 C         142.1512  140.2754  167.1950 C.ar    1  UNL1        0.0776
     36 CL        142.1718  139.7882  165.7765 Cl      1  UNL1       -0.0806
@<TRIPOS>BOND
     1     2     3    2
     2     3     4   am
     3     4     6    1
     4     6     7   ar
     5     7     8   ar
     6     8     9   ar
     7     9    10    1
     8     9    11   ar
     9    11    12   ar
    10     3     1    1
    11     1    13    1
    12    13    14    1
    13    14    15    1
    14    15    16    1
    15    16    17    1
    16     1    19    1
    17    19    20    1
    18    20    21   ar
    19    21    22   ar
    20    22    23   ar
    21    23    24   ar
    22    24    25   ar
    23    25    26   ar
    24    26    27   ar
    25    27    28   ar
    26    28    29    1
    27    29    30   ar
    28    30    31    1
    29    30    32   ar
    30    32    33   ar
    31    33    34   ar
    32    34    35   ar
    33    35    36    1
    34    12     6   ar
    35    25    20   ar
    36    35    29   ar
    37    28    24   ar
    38     4     5    1
    39    17    18    1
