@<TRIPOS>MOLECULE
*****
 42 47 0 0 0
SMALL
GASTEIGER

@<TRIPOS>ATOM
      1 C         145.5794  140.8564  163.8977 C.3     1  UNL1        0.0970
      2 N         144.4419  139.9181  163.6221 N.3     1  UNL1       -0.2710
      3 C         144.1439  139.4937  162.2146 C.3     1  UNL1        0.0735
      4 C         143.0066  138.5555  161.9390 C.3     1  UNL1        0.0331
      5 C         142.1671  138.0414  163.0709 C.3     1  UNL1        0.0570
      6 C         142.4651  138.4658  164.4785 C.3     1  UNL1        0.0331
      7 C         143.6026  139.4041  164.7541 C.3     1  UNL1        0.0735
      8 N         141.0298  137.1032  162.7953 N.3     1  UNL1       -0.2934
      9 H         140.9134  136.5284  163.6299 H       1  UNL1        0.1236
     10 C         139.6748  137.6475  162.4520 C.3     1  UNL1        0.1152
     11 C         139.2276  138.9607  163.0223 C.ar    1  UNL1        0.0765
     12 C         138.6148  139.0145  164.3904 C.ar    1  UNL1        0.0193
     13 C         138.1676  140.3278  164.9608 C.ar    1  UNL1        0.0411
     14 C         138.3330  141.5872  164.1630 C.ar    1  UNL1        0.1708
     15 C         138.9457  141.5334  162.7949 C.ar    1  UNL1        0.1682
     16 N         139.3930  140.2201  162.2245 N.ar    1  UNL1       -0.2304
     17 N         139.1111  142.7929  161.9972 N.am    1  UNL1       -0.2639
     18 C         138.6638  144.1061  162.5675 C.2     1  UNL1        0.2718
     19 O         138.8292  145.3656  161.7697 O.2     1  UNL1       -0.2707
     20 C         138.0511  144.1599  163.9356 C.3     1  UNL1        0.2898
     21 O         137.8857  142.9004  164.7333 O.3     1  UNL1       -0.4628
     22 H         139.5132  142.7576  161.0992 H       1  UNL1        0.1565
     23 C         145.6812  142.1519  163.1486 C.3     1  UNL1        0.1264
     24 C         143.4213  142.8239  159.3157 C.ar    1  UNL1        0.1597
     25 C         142.2558  143.7678  159.2878 C.ar    1  UNL1        0.1357
     26 N         141.8437  144.4876  160.5375 N.ar    1  UNL1       -0.2392
     27 C         142.5970  144.2636  161.8152 C.ar    1  UNL1        0.0975
     28 C         142.1847  144.9835  163.0650 C.ar    1  UNL1        0.0255
     29 C         142.9380  144.7595  164.3426 C.ar    1  UNL1        0.0623
     30 C         144.1036  143.8156  164.3704 C.ar    1  UNL1        0.2611
     31 O         144.8568  143.5916  165.6481 O.2     1  UNL1       -0.2670
     32 N         144.5157  143.0958  163.1207 N.ar    1  UNL1       -0.2926
     33 C         143.7624  143.3198  161.8431 C.ar    1  UNL1        0.0832
     34 C         144.1746  142.5999  160.5933 C.ar    1  UNL1        0.0573
     35 O         143.8335  142.1040  158.0659 O.3     1  UNL1       -0.4673
     36 C         144.2506  140.6648  158.1323 C.3     1  UNL1        0.2527
     37 C         141.9278  136.2319  156.4488 C.3     1  UNL1        0.1538
     38 N         142.1712  137.5421  157.1373 N.ar    1  UNL1       -0.2476
     39 C         141.1926  138.2778  158.0040 C.ar    1  UNL1        0.0965
     40 C         141.8525  139.5371  158.4823 C.ar    1  UNL1        0.0404
     41 C         143.2389  139.5797  157.9111 C.ar    1  UNL1        0.1237
     42 N         143.4358  138.3467  157.0798 N.ar    1  UNL1       -0.1699
@<TRIPOS>BOND
     1    37    38    1
     2    38    39   ar
     3    39    40   ar
     4    40    41   ar
     5    41    36    1
     6    36    35    1
     7    35    24    1
     8    24    25   ar
     9    25    26   ar
    10    26    27   ar
    11    27    28   ar
    12    28    29   ar
    13    29    30   ar
    14    30    31    2
    15    30    32   ar
    16    32    23    1
    17    23     1    1
    18     1     2    1
    19     2     3    1
    20     3     4    1
    21     4     5    1
    22     5     8    1
    23     8    10    1
    24    10    11    1
    25    11    12   ar
    26    12    13   ar
    27    13    14   ar
    28    14    15   ar
    29    15    16   ar
    30    15    17    1
    31    17    18   am
    32    18    19    2
    33    18    20    1
    34    20    21    1
    35     5     6    1
    36     6     7    1
    37    32    33   ar
    38    33    34   ar
    39    41    42   ar
    40    42    38   ar
    41    34    24   ar
    42    33    27   ar
    43     7     2    1
    44    16    11   ar
    45    21    14    1
    46     8     9    1
    47    17    22    1
@<TRIPOS>MOLECULE
*****
 42 47 0 0 0
SMALL
GASTEIGER

@<TRIPOS>ATOM
      1 C         144.4637  142.4164  160.6260 C.3     1  UNL1        0.0970
      2 N         144.5899  141.4677  161.7811 N.3     1  UNL1       -0.2710
      3 C         145.4147  141.8458  162.9755 C.3     1  UNL1        0.0735
      4 C         145.5409  140.8972  164.1306 C.3     1  UNL1        0.0331
      5 C         144.8422  139.5704  164.0913 C.3     1  UNL1        0.0570
      6 C         144.0173  139.1923  162.8969 C.3     1  UNL1        0.0331
      7 C         143.8911  140.1410  161.7418 C.3     1  UNL1        0.0735
      8 N         144.9683  138.6218  165.2464 N.3     1  UNL1       -0.2934
      9 H         145.5767  139.0708  165.9310 H       1  UNL1        0.1236
     10 C         143.7426  138.1724  165.9851 C.3     1  UNL1        0.1152
     11 C         142.8178  139.1864  166.5905 C.ar    1  UNL1        0.0765
     12 C         141.7633  139.8383  165.7460 C.ar    1  UNL1        0.0193
     13 C         140.8385  140.8523  166.3513 C.ar    1  UNL1        0.0411
     14 C         140.9682  141.2145  167.8011 C.ar    1  UNL1        0.1708
     15 C         142.0226  140.5627  168.6456 C.ar    1  UNL1        0.1682
     16 N         142.9475  139.5487  168.0403 N.ar    1  UNL1       -0.2304
     17 N         142.1523  140.9249  170.0954 N.am    1  UNL1       -0.2639
     18 C         141.2275  141.9390  170.7008 C.2     1  UNL1        0.2718
     19 O         141.3571  142.3012  172.1506 O.2     1  UNL1       -0.2707
     20 C         140.1730  142.5908  169.8563 C.3     1  UNL1        0.2898
     21 O         140.0434  142.2285  168.4064 O.3     1  UNL1       -0.4628
     22 H         142.8444  140.4971  170.6497 H       1  UNL1        0.1565
     23 C         143.2196  143.2382  160.4629 C.3     1  UNL1        0.1264
     24 C         139.0843  141.5463  160.9986 C.ar    1  UNL1        0.1597
     25 C         138.2703  141.9217  162.2013 C.ar    1  UNL1        0.1357
     26 N         138.8348  142.8610  163.2254 N.ar    1  UNL1       -0.2392
     27 C         140.2133  143.4250  163.0469 C.ar    1  UNL1        0.0975
     28 C         140.7777  144.3643  164.0711 C.ar    1  UNL1        0.0255
     29 C         142.1562  144.9283  163.8926 C.ar    1  UNL1        0.0623
     30 C         142.9701  144.5529  162.6898 C.ar    1  UNL1        0.2611
     31 O         144.3485  145.1169  162.5113 O.2     1  UNL1       -0.2670
     32 N         142.4056  143.6136  161.6656 N.ar    1  UNL1       -0.2926
     33 C         141.0272  143.0496  161.8442 C.ar    1  UNL1        0.0832
     34 C         140.4627  142.1103  160.8200 C.ar    1  UNL1        0.0573
     35 O         138.5198  140.6069  159.9743 O.3     1  UNL1       -0.4673
     36 C         138.7716  139.1327  160.0892 C.3     1  UNL1        0.2527
     37 C         138.8747  137.4072  165.0784 C.3     1  UNL1        0.1538
     38 N         139.2933  137.7587  163.6816 N.ar    1  UNL1       -0.2476
     39 C         140.6583  137.5573  163.0932 C.ar    1  UNL1        0.0965
     40 C         140.6290  138.0475  161.6758 C.ar    1  UNL1        0.0404
     41 C         139.2459  138.5518  161.3883 C.ar    1  UNL1        0.1237
     42 N         138.4204  138.3734  162.6280 N.ar    1  UNL1       -0.1699
@<TRIPOS>BOND
     1    37    38    1
     2    38    39   ar
     3    39    40   ar
     4    40    41   ar
     5    41    36    1
     6    36    35    1
     7    35    24    1
     8    24    25   ar
     9    25    26   ar
    10    26    27   ar
    11    27    28   ar
    12    28    29   ar
    13    29    30   ar
    14    30    31    2
    15    30    32   ar
    16    32    23    1
    17    23     1    1
    18     1     2    1
    19     2     3    1
    20     3     4    1
    21     4     5    1
    22     5     8    1
    23     8    10    1
    24    10    11    1
    25    11    12   ar
    26    12    13   ar
    27    13    14   ar
    28    14    15   ar
    29    15    16   ar
    30    15    17    1
    31    17    18   am
    32    18    19    2
    33    18    20    1
    34    20    21    1
    35     5     6    1
    36     6     7    1
    37    32    33   ar
    38    33    34   ar
    39    41    42   ar
    40    42    38   ar
    41    34    24   ar
    42    33    27   ar
    43     7     2    1
    44    16    11   ar
    45    21    14    1
    46     8     9    1
    47    17    22    1
@<TRIPOS>MOLECULE
*****
 42 47 0 0 0
SMALL
GASTEIGER

@<TRIPOS>ATOM
      1 C         138.1190  143.7249  163.2108 C.3     1  UNL1        0.0970
      2 N         139.5759  143.8079  163.5581 N.3     1  UNL1       -0.2710
      3 C         140.0829  143.1775  164.8213 C.3     1  UNL1        0.0735
      4 C         141.5397  143.2604  165.1686 C.3     1  UNL1        0.0331
      5 C         142.4897  143.9737  164.2527 C.3     1  UNL1        0.0570
      6 C         141.9828  144.6040  162.9895 C.3     1  UNL1        0.0331
      7 C         140.5258  144.5211  162.6422 C.3     1  UNL1        0.0735
      8 N         143.9466  144.0565  164.6000 N.3     1  UNL1       -0.2934
      9 H         144.0126  144.5888  165.4675 H       1  UNL1        0.1236
     10 C         144.7424  142.8010  164.8006 C.3     1  UNL1        0.1152
     11 C         144.3575  141.5452  164.0762 C.ar    1  UNL1        0.0765
     12 C         144.0070  140.3096  164.8512 C.ar    1  UNL1        0.0193
     13 C         143.6221  139.0539  164.1268 C.ar    1  UNL1        0.0411
     14 C         143.5877  139.0336  162.6273 C.ar    1  UNL1        0.1708
     15 C         143.9381  140.2691  161.8523 C.ar    1  UNL1        0.1682
     16 N         144.3230  141.5250  162.5767 N.ar    1  UNL1       -0.2304
     17 N         143.9036  140.2488  160.3528 N.am    1  UNL1       -0.2639
     18 C         143.5187  138.9931  159.6284 C.2     1  UNL1        0.2718
     19 O         143.4842  138.9728  158.1289 O.2     1  UNL1       -0.2707
     20 C         143.1683  137.7576  160.4034 C.3     1  UNL1        0.2898
     21 O         143.2028  137.7778  161.9029 O.3     1  UNL1       -0.4628
     22 H         144.1336  141.0598  159.8442 H       1  UNL1        0.1565
     23 C         137.5260  142.4192  162.7710 C.3     1  UNL1        0.1264
     24 C         138.7854  138.3880  164.3244 C.ar    1  UNL1        0.1597
     25 C         139.5772  137.4613  163.4503 C.ar    1  UNL1        0.1357
     26 N         139.9491  137.8783  162.0583 N.ar    1  UNL1       -0.2392
     27 C         139.5293  139.2221  161.5405 C.ar    1  UNL1        0.0975
     28 C         139.9013  139.6390  160.1484 C.ar    1  UNL1        0.0255
     29 C         139.4815  140.9828  159.6306 C.ar    1  UNL1        0.0623
     30 C         138.6897  141.9095  160.5048 C.ar    1  UNL1        0.2611
     31 O         138.2699  143.2533  159.9870 O.2     1  UNL1       -0.2670
     32 N         138.3177  141.4925  161.8968 N.ar    1  UNL1       -0.2926
     33 C         138.7375  140.1488  162.4146 C.ar    1  UNL1        0.0832
     34 C         138.3656  139.7318  163.8066 C.ar    1  UNL1        0.0573
     35 O         138.4134  137.9710  165.7165 O.3     1  UNL1       -0.4673
     36 C         138.0729  139.0089  166.7446 C.3     1  UNL1        0.2527
     37 C         140.7782  140.7614  170.9267 C.3     1  UNL1        0.1538
     38 N         140.3981  140.4091  169.5192 N.ar    1  UNL1       -0.2476
     39 C         141.2404  140.6281  168.2974 C.ar    1  UNL1        0.0965
     40 C         140.4718  140.1302  167.1092 C.ar    1  UNL1        0.0404
     41 C         139.1546  139.6035  167.5969 C.ar    1  UNL1        0.1237
     42 N         139.1091  139.7759  169.0862 N.ar    1  UNL1       -0.1699
@<TRIPOS>BOND
     1    37    38    1
     2    38    39   ar
     3    39    40   ar
     4    40    41   ar
     5    41    36    1
     6    36    35    1
     7    35    24    1
     8    24    25   ar
     9    25    26   ar
    10    26    27   ar
    11    27    28   ar
    12    28    29   ar
    13    29    30   ar
    14    30    31    2
    15    30    32   ar
    16    32    23    1
    17    23     1    1
    18     1     2    1
    19     2     3    1
    20     3     4    1
    21     4     5    1
    22     5     8    1
    23     8    10    1
    24    10    11    1
    25    11    12   ar
    26    12    13   ar
    27    13    14   ar
    28    14    15   ar
    29    15    16   ar
    30    15    17    1
    31    17    18   am
    32    18    19    2
    33    18    20    1
    34    20    21    1
    35     5     6    1
    36     6     7    1
    37    32    33   ar
    38    33    34   ar
    39    41    42   ar
    40    42    38   ar
    41    34    24   ar
    42    33    27   ar
    43     7     2    1
    44    16    11   ar
    45    21    14    1
    46     8     9    1
    47    17    22    1
@<TRIPOS>MOLECULE
*****
 42 47 0 0 0
SMALL
GASTEIGER

@<TRIPOS>ATOM
      1 C         139.2459  139.9658  160.1403 C.3     1  UNL1        0.0970
      2 N         140.6381  139.9114  160.6962 N.3     1  UNL1       -0.2710
      3 C         141.2262  138.5978  161.1188 C.3     1  UNL1        0.0735
      4 C         142.6183  138.5434  161.6747 C.3     1  UNL1        0.0331
      5 C         143.4224  139.8027  161.8080 C.3     1  UNL1        0.0570
      6 C         142.8343  141.1164  161.3855 C.3     1  UNL1        0.0331
      7 C         141.4421  141.1707  160.8296 C.3     1  UNL1        0.0735
      8 N         144.8145  139.7484  162.3639 N.3     1  UNL1       -0.2934
      9 H         145.4220  140.2014  161.6813 H       1  UNL1        0.1236
     10 C         145.1159  140.3732  163.6938 C.3     1  UNL1        0.1152
     11 C         144.1408  140.2359  164.8253 C.ar    1  UNL1        0.0765
     12 C         143.8758  138.8880  165.4277 C.ar    1  UNL1        0.0193
     13 C         142.9007  138.7507  166.5592 C.ar    1  UNL1        0.0411
     14 C         142.1905  139.9613  167.0883 C.ar    1  UNL1        0.1708
     15 C         142.4554  141.3092  166.4859 C.ar    1  UNL1        0.1682
     16 N         143.4306  141.4466  165.3544 N.ar    1  UNL1       -0.2304
     17 N         141.7452  142.5199  167.0150 N.am    1  UNL1       -0.2639
     18 C         140.7701  142.3826  168.1465 C.2     1  UNL1        0.2718
     19 O         140.0599  143.5933  168.6755 O.2     1  UNL1       -0.2707
     20 C         140.5052  141.0347  168.7488 C.3     1  UNL1        0.2898
     21 O         141.2154  139.8241  168.2197 O.3     1  UNL1       -0.4628
     22 H         141.9191  143.4046  166.6196 H       1  UNL1        0.1565
     23 C         138.0843  140.2314  161.0515 C.3     1  UNL1        0.1264
     24 C         138.6987  144.2983  162.8771 C.ar    1  UNL1        0.1597
     25 C         138.9197  144.4315  164.3547 C.ar    1  UNL1        0.1357
     26 N         138.9360  143.2090  165.2238 N.ar    1  UNL1       -0.2392
     27 C         138.7312  141.8534  164.6152 C.ar    1  UNL1        0.0975
     28 C         138.7474  140.6309  165.4844 C.ar    1  UNL1        0.0255
     29 C         138.5426  139.2753  164.8759 C.ar    1  UNL1        0.0623
     30 C         138.3216  139.1421  163.3982 C.ar    1  UNL1        0.2611
     31 O         138.1168  137.7865  162.7896 O.2     1  UNL1       -0.2670
     32 N         138.3054  140.3646  162.5291 N.ar    1  UNL1       -0.2926
     33 C         138.5102  141.7202  163.1376 C.ar    1  UNL1        0.0832
     34 C         138.4939  142.9426  162.2686 C.ar    1  UNL1        0.0573
     35 O         138.6825  145.5208  162.0079 O.3     1  UNL1       -0.4673
     36 C         139.9679  146.0748  161.4688 C.3     1  UNL1        0.2527
     37 C         143.4048  143.3855  158.4962 C.3     1  UNL1        0.1538
     38 N         142.2111  144.1855  158.9263 N.ar    1  UNL1       -0.2476
     39 C         141.0932  144.6475  158.0391 C.ar    1  UNL1        0.0965
     40 C         140.1168  145.4115  158.8836 C.ar    1  UNL1        0.0404
     41 C         140.6313  145.4216  160.2926 C.ar    1  UNL1        0.1237
     42 N         141.9256  144.6639  160.3190 N.ar    1  UNL1       -0.1699
@<TRIPOS>BOND
     1    37    38    1
     2    38    39   ar
     3    39    40   ar
     4    40    41   ar
     5    41    36    1
     6    36    35    1
     7    35    24    1
     8    24    25   ar
     9    25    26   ar
    10    26    27   ar
    11    27    28   ar
    12    28    29   ar
    13    29    30   ar
    14    30    31    2
    15    30    32   ar
    16    32    23    1
    17    23     1    1
    18     1     2    1
    19     2     3    1
    20     3     4    1
    21     4     5    1
    22     5     8    1
    23     8    10    1
    24    10    11    1
    25    11    12   ar
    26    12    13   ar
    27    13    14   ar
    28    14    15   ar
    29    15    16   ar
    30    15    17    1
    31    17    18   am
    32    18    19    2
    33    18    20    1
    34    20    21    1
    35     5     6    1
    36     6     7    1
    37    32    33   ar
    38    33    34   ar
    39    41    42   ar
    40    42    38   ar
    41    34    24   ar
    42    33    27   ar
    43     7     2    1
    44    16    11   ar
    45    21    14    1
    46     8     9    1
    47    17    22    1
@<TRIPOS>MOLECULE
*****
 42 47 0 0 0
SMALL
GASTEIGER

@<TRIPOS>ATOM
      1 C         144.1019  141.4887  159.9577 C.3     1  UNL1        0.0970
      2 N         143.3706  140.3873  160.6663 N.3     1  UNL1       -0.2710
      3 C         141.8779  140.4449  160.8029 C.3     1  UNL1        0.0735
      4 C         141.1465  139.3436  161.5115 C.3     1  UNL1        0.0331
      5 C         141.9078  138.1845  162.0834 C.3     1  UNL1        0.0570
      6 C         143.4005  138.1268  161.9467 C.3     1  UNL1        0.0331
      7 C         144.1318  139.2283  161.2381 C.3     1  UNL1        0.0735
      8 N         141.1765  137.0831  162.7919 N.3     1  UNL1       -0.2934
      9 H         141.5648  136.2042  162.4498 H       1  UNL1        0.1236
     10 C         141.1973  137.0117  164.2901 C.3     1  UNL1        0.1152
     11 C         140.9330  138.2439  165.1035 C.ar    1  UNL1        0.0765
     12 C         139.5555  138.8367  165.1410 C.ar    1  UNL1        0.0193
     13 C         139.2912  140.0689  165.9544 C.ar    1  UNL1        0.0411
     14 C         140.4043  140.7085  166.7303 C.ar    1  UNL1        0.1708
     15 C         141.7817  140.1158  166.6928 C.ar    1  UNL1        0.1682
     16 N         142.0461  138.8835  165.8793 N.ar    1  UNL1       -0.2304
     17 N         142.8948  140.7554  167.4686 N.am    1  UNL1       -0.2639
     18 C         142.6305  141.9876  168.2820 C.2     1  UNL1        0.2718
     19 O         143.7436  142.6272  169.0579 O.2     1  UNL1       -0.2707
     20 C         141.2531  142.5803  168.3195 C.3     1  UNL1        0.2898
     21 O         140.1400  141.9407  167.5437 O.3     1  UNL1       -0.4628
     22 H         143.7989  140.3663  167.4440 H       1  UNL1        0.1565
     23 C         144.5397  142.7069  160.7155 C.3     1  UNL1        0.1264
     24 C         140.7564  145.0311  161.4470 C.ar    1  UNL1        0.1597
     25 C         140.2736  145.2558  162.8493 C.ar    1  UNL1        0.1357
     26 N         141.0518  144.7058  164.0076 N.ar    1  UNL1       -0.2392
     27 C         142.3129  143.9311  163.7638 C.ar    1  UNL1        0.0975
     28 C         143.0911  143.3811  164.9222 C.ar    1  UNL1        0.0255
     29 C         144.3522  142.6064  164.6784 C.ar    1  UNL1        0.0623
     30 C         144.8350  142.3817  163.2761 C.ar    1  UNL1        0.2611
     31 O         146.0961  141.6070  163.0322 O.2     1  UNL1       -0.2670
     32 N         144.0568  142.9317  162.1177 N.ar    1  UNL1       -0.2926
     33 C         142.7957  143.7064  162.3616 C.ar    1  UNL1        0.0832
     34 C         142.0175  144.2564  161.2032 C.ar    1  UNL1        0.0573
     35 O         139.9782  145.5811  160.2886 O.3     1  UNL1       -0.4673
     36 C         140.0580  144.9144  158.9473 C.3     1  UNL1        0.2527
     37 C         137.7330  140.2297  159.6742 C.3     1  UNL1        0.1538
     38 N         138.6216  141.3137  159.1402 N.ar    1  UNL1       -0.2476
     39 C         139.6275  141.1657  158.0373 C.ar    1  UNL1        0.0965
     40 C         140.2880  142.4966  157.8308 C.ar    1  UNL1        0.0404
     41 C         139.6903  143.4670  158.8061 C.ar    1  UNL1        0.1237
     42 N         138.6605  142.7359  159.6153 N.ar    1  UNL1       -0.1699
@<TRIPOS>BOND
     1    37    38    1
     2    38    39   ar
     3    39    40   ar
     4    40    41   ar
     5    41    36    1
     6    36    35    1
     7    35    24    1
     8    24    25   ar
     9    25    26   ar
    10    26    27   ar
    11    27    28   ar
    12    28    29   ar
    13    29    30   ar
    14    30    31    2
    15    30    32   ar
    16    32    23    1
    17    23     1    1
    18     1     2    1
    19     2     3    1
    20     3     4    1
    21     4     5    1
    22     5     8    1
    23     8    10    1
    24    10    11    1
    25    11    12   ar
    26    12    13   ar
    27    13    14   ar
    28    14    15   ar
    29    15    16   ar
    30    15    17    1
    31    17    18   am
    32    18    19    2
    33    18    20    1
    34    20    21    1
    35     5     6    1
    36     6     7    1
    37    32    33   ar
    38    33    34   ar
    39    41    42   ar
    40    42    38   ar
    41    34    24   ar
    42    33    27   ar
    43     7     2    1
    44    16    11   ar
    45    21    14    1
    46     8     9    1
    47    17    22    1
@<TRIPOS>MOLECULE
*****
 42 47 0 0 0
SMALL
GASTEIGER

@<TRIPOS>ATOM
      1 C         139.1907  137.5715  163.2418 C.3     1  UNL1        0.0970
      2 N         140.6056  138.0694  163.2600 N.3     1  UNL1       -0.2710
      3 C         141.3037  138.2974  164.5679 C.3     1  UNL1        0.0735
      4 C         142.7185  138.7952  164.5861 C.3     1  UNL1        0.0331
      5 C         143.4354  139.0650  163.2964 C.3     1  UNL1        0.0570
      6 C         142.7374  138.8369  161.9884 C.3     1  UNL1        0.0331
      7 C         141.3224  138.3391  161.9702 C.3     1  UNL1        0.0735
      8 N         144.8502  139.5628  163.3146 N.3     1  UNL1       -0.2934
      9 H         145.2531  139.3383  162.4049 H       1  UNL1        0.1236
     10 C         145.1313  141.0145  163.5663 C.3     1  UNL1        0.1152
     11 C         144.0437  142.0314  163.3854 C.ar    1  UNL1        0.0765
     12 C         143.2866  142.5399  164.5764 C.ar    1  UNL1        0.0193
     13 C         142.1989  143.5568  164.3954 C.ar    1  UNL1        0.0411
     14 C         141.8682  144.0653  163.0235 C.ar    1  UNL1        0.1708
     15 C         142.6252  143.5569  161.8326 C.ar    1  UNL1        0.1682
     16 N         143.7130  142.5400  162.0135 N.ar    1  UNL1       -0.2304
     17 N         142.2946  144.0654  160.4607 N.am    1  UNL1       -0.2639
     18 C         141.2069  145.0823  160.2798 C.2     1  UNL1        0.2718
     19 O         140.8762  145.5909  158.9079 O.2     1  UNL1       -0.2707
     20 C         140.4499  145.5907  161.4707 C.3     1  UNL1        0.2898
     21 O         140.7805  145.0822  162.8426 O.3     1  UNL1       -0.4628
     22 H         142.7915  143.7317  159.6791 H       1  UNL1        0.1565
     23 C         138.1290  138.3554  162.5287 C.3     1  UNL1        0.1264
     24 C         138.2618  140.7419  158.7160 C.ar    1  UNL1        0.1597
     25 C         138.2729  142.2409  158.7695 C.ar    1  UNL1        0.1357
     26 N         138.2398  142.9443  160.0938 N.ar    1  UNL1       -0.2392
     27 C         138.1955  142.1488  161.3648 C.ar    1  UNL1        0.0975
     28 C         138.1624  142.8524  162.6892 C.ar    1  UNL1        0.0255
     29 C         138.1181  142.0569  163.9601 C.ar    1  UNL1        0.0623
     30 C         138.1070  140.5578  163.9066 C.ar    1  UNL1        0.2611
     31 O         138.0627  139.7623  165.1775 O.2     1  UNL1       -0.2670
     32 N         138.1401  139.8543  162.5822 N.ar    1  UNL1       -0.2926
     33 C         138.1844  140.6499  161.3113 C.ar    1  UNL1        0.0832
     34 C         138.2175  139.9464  159.9869 C.ar    1  UNL1        0.0573
     35 O         138.2949  140.0383  157.3916 O.3     1  UNL1       -0.4673
     36 C         137.7550  140.7174  156.1679 C.3     1  UNL1        0.2527
     37 C         132.5450  140.0843  156.7471 C.3     1  UNL1        0.1538
     38 N         133.8848  140.4229  156.1638 N.ar    1  UNL1       -0.2476
     39 C         134.1334  140.9943  154.7993 C.ar    1  UNL1        0.0965
     40 C         135.6136  141.1741  154.6348 C.ar    1  UNL1        0.0404
     41 C         136.2796  140.7139  155.8976 C.ar    1  UNL1        0.1237
     42 N         135.2111  140.2497  156.8426 N.ar    1  UNL1       -0.1699
@<TRIPOS>BOND
     1    37    38    1
     2    38    39   ar
     3    39    40   ar
     4    40    41   ar
     5    41    36    1
     6    36    35    1
     7    35    24    1
     8    24    25   ar
     9    25    26   ar
    10    26    27   ar
    11    27    28   ar
    12    28    29   ar
    13    29    30   ar
    14    30    31    2
    15    30    32   ar
    16    32    23    1
    17    23     1    1
    18     1     2    1
    19     2     3    1
    20     3     4    1
    21     4     5    1
    22     5     8    1
    23     8    10    1
    24    10    11    1
    25    11    12   ar
    26    12    13   ar
    27    13    14   ar
    28    14    15   ar
    29    15    16   ar
    30    15    17    1
    31    17    18   am
    32    18    19    2
    33    18    20    1
    34    20    21    1
    35     5     6    1
    36     6     7    1
    37    32    33   ar
    38    33    34   ar
    39    41    42   ar
    40    42    38   ar
    41    34    24   ar
    42    33    27   ar
    43     7     2    1
    44    16    11   ar
    45    21    14    1
    46     8     9    1
    47    17    22    1
@<TRIPOS>MOLECULE
*****
 42 47 0 0 0
SMALL
GASTEIGER

@<TRIPOS>ATOM
      1 C         137.8632  140.0527  160.1405 C.3     1  UNL1        0.0970
      2 N         137.9339  141.0738  161.2371 N.3     1  UNL1       -0.2710
      3 C         137.6157  140.6810  162.6494 C.3     1  UNL1        0.0735
      4 C         137.6864  141.7020  163.7459 C.3     1  UNL1        0.0331
      5 C         138.0754  143.1160  163.4302 C.3     1  UNL1        0.0570
      6 C         138.3937  143.5088  162.0180 C.3     1  UNL1        0.0331
      7 C         138.3229  142.4876  160.9214 C.3     1  UNL1        0.0735
      8 N         138.1462  144.1370  164.5268 N.3     1  UNL1       -0.2934
      9 H         137.3618  143.9523  165.1521 H       1  UNL1        0.1236
     10 C         139.3721  144.2312  165.3859 C.3     1  UNL1        0.1152
     11 C         140.7242  143.9604  164.7957 C.ar    1  UNL1        0.0765
     12 C         141.3695  144.9774  163.9014 C.ar    1  UNL1        0.0193
     13 C         142.7216  144.7066  163.3112 C.ar    1  UNL1        0.0411
     14 C         143.4285  143.4190  163.6151 C.ar    1  UNL1        0.1708
     15 C         142.7833  142.4022  164.5093 C.ar    1  UNL1        0.1682
     16 N         141.4312  142.6729  165.0996 N.ar    1  UNL1       -0.2304
     17 N         143.4903  141.1146  164.8132 N.am    1  UNL1       -0.2639
     18 C         144.8424  140.8439  164.2230 C.2     1  UNL1        0.2718
     19 O         145.5493  139.5563  164.5269 O.2     1  UNL1       -0.2707
     20 C         145.4876  141.8607  163.3288 C.3     1  UNL1        0.2898
     21 O         144.7807  143.1483  163.0249 O.3     1  UNL1       -0.4628
     22 H         143.0668  140.4472  165.4001 H       1  UNL1        0.1565
     23 C         138.6266  138.7672  160.2624 C.3     1  UNL1        0.1264
     24 C         142.3071  138.2785  162.8050 C.ar    1  UNL1        0.1597
     25 C         143.6531  138.1413  162.1575 C.ar    1  UNL1        0.1357
     26 N         143.7724  138.1671  160.6625 N.ar    1  UNL1       -0.2392
     27 C         142.5455  138.3300  159.8150 C.ar    1  UNL1        0.0975
     28 C         142.6648  138.3557  158.3199 C.ar    1  UNL1        0.0255
     29 C         141.4380  138.5187  157.4724 C.ar    1  UNL1        0.0623
     30 C         140.0919  138.6558  158.1199 C.ar    1  UNL1        0.2611
     31 O         138.8650  138.8187  157.2724 O.2     1  UNL1       -0.2670
     32 N         139.9726  138.6301  159.6149 N.ar    1  UNL1       -0.2926
     33 C         141.1995  138.4671  160.4625 C.ar    1  UNL1        0.0832
     34 C         141.0802  138.4414  161.9575 C.ar    1  UNL1        0.0573
     35 O         142.1878  138.2527  164.3001 O.3     1  UNL1       -0.4673
     36 C         140.8971  138.6443  164.9563 C.3     1  UNL1        0.2527
     37 C         142.5635  140.6769  169.5358 C.3     1  UNL1        0.1538
     38 N         141.6763  140.2344  168.4103 N.ar    1  UNL1       -0.2476
     39 C         140.1849  140.3843  168.3520 C.ar    1  UNL1        0.0965
     40 C         139.7115  139.8068  167.0510 C.ar    1  UNL1        0.0404
     41 C         140.9103  139.3001  166.3053 C.ar    1  UNL1        0.1237
     42 N         142.1246  139.5644  167.1454 N.ar    1  UNL1       -0.1699
@<TRIPOS>BOND
     1    37    38    1
     2    38    39   ar
     3    39    40   ar
     4    40    41   ar
     5    41    36    1
     6    36    35    1
     7    35    24    1
     8    24    25   ar
     9    25    26   ar
    10    26    27   ar
    11    27    28   ar
    12    28    29   ar
    13    29    30   ar
    14    30    31    2
    15    30    32   ar
    16    32    23    1
    17    23     1    1
    18     1     2    1
    19     2     3    1
    20     3     4    1
    21     4     5    1
    22     5     8    1
    23     8    10    1
    24    10    11    1
    25    11    12   ar
    26    12    13   ar
    27    13    14   ar
    28    14    15   ar
    29    15    16   ar
    30    15    17    1
    31    17    18   am
    32    18    19    2
    33    18    20    1
    34    20    21    1
    35     5     6    1
    36     6     7    1
    37    32    33   ar
    38    33    34   ar
    39    41    42   ar
    40    42    38   ar
    41    34    24   ar
    42    33    27   ar
    43     7     2    1
    44    16    11   ar
    45    21    14    1
    46     8     9    1
    47    17    22    1
@<TRIPOS>MOLECULE
*****
 42 47 0 0 0
SMALL
GASTEIGER

@<TRIPOS>ATOM
      1 C         138.4328  142.6303  160.5228 C.3     1  UNL1        0.0970
      2 N         139.9328  142.6298  160.5118 N.3     1  UNL1       -0.2710
      3 C         140.6809  143.8916  160.1986 C.3     1  UNL1        0.0735
      4 C         142.1809  143.8911  160.1876 C.3     1  UNL1        0.0331
      5 C         142.9327  142.6288  160.4900 C.3     1  UNL1        0.0570
      6 C         142.1846  141.3670  160.8032 C.3     1  UNL1        0.0331
      7 C         140.6846  141.3675  160.8141 C.3     1  UNL1        0.0735
      8 N         144.4327  142.6283  160.4790 N.3     1  UNL1       -0.2934
      9 H         144.7232  143.4179  159.9022 H       1  UNL1        0.1236
     10 C         145.1921  142.7314  161.7684 C.3     1  UNL1        0.1152
     11 C         144.5786  142.2309  163.0423 C.ar    1  UNL1        0.0765
     12 C         143.6778  143.1242  163.8427 C.ar    1  UNL1        0.0193
     13 C         143.0642  142.6237  165.1166 C.ar    1  UNL1        0.0411
     14 C         143.3514  141.2297  165.5902 C.ar    1  UNL1        0.1708
     15 C         144.2522  140.3363  164.7900 C.ar    1  UNL1        0.1682
     16 N         144.8658  140.8369  163.5160 N.ar    1  UNL1       -0.2304
     17 N         144.5394  138.9424  165.2637 N.am    1  UNL1       -0.2639
     18 C         143.9258  138.4418  166.5376 C.2     1  UNL1        0.2718
     19 O         144.2131  137.0478  167.0113 O.2     1  UNL1       -0.2707
     20 C         143.0251  139.3351  167.3378 C.3     1  UNL1        0.2898
     21 O         142.7379  140.7291  166.8642 O.3     1  UNL1       -0.4628
     22 H         145.1306  138.3560  164.7384 H       1  UNL1        0.1565
     23 C         137.6922  142.4547  161.8153 C.3     1  UNL1        0.1264
     24 C         138.8513  139.5045  165.0095 C.ar    1  UNL1        0.1597
     25 C         139.4577  139.9886  166.2931 C.ar    1  UNL1        0.1357
     26 N         139.6778  141.4561  166.5121 N.ar    1  UNL1       -0.2392
     27 C         139.2914  142.4395  165.4473 C.ar    1  UNL1        0.0975
     28 C         139.5115  143.9071  165.6663 C.ar    1  UNL1        0.0255
     29 C         139.1252  144.8905  164.6016 C.ar    1  UNL1        0.0623
     30 C         138.5187  144.4063  163.3179 C.ar    1  UNL1        0.2611
     31 O         138.1323  145.3897  162.2532 O.2     1  UNL1       -0.2670
     32 N         138.2986  142.9388  163.0990 N.ar    1  UNL1       -0.2926
     33 C         138.6850  141.9554  164.1637 C.ar    1  UNL1        0.0832
     34 C         138.4649  140.4879  163.9448 C.ar    1  UNL1        0.0573
     35 O         138.6312  138.0369  164.7905 O.3     1  UNL1       -0.4673
     36 C         138.8922  137.4323  163.4429 C.3     1  UNL1        0.2527
     37 C         142.6819  137.9508  159.8028 C.3     1  UNL1        0.1538
     38 N         141.9771  137.8341  161.1217 N.ar    1  UNL1       -0.2476
     39 C         142.6263  137.8608  162.4737 C.ar    1  UNL1        0.0965
     40 C         141.5496  137.7135  163.5078 C.ar    1  UNL1        0.0404
     41 C         140.2352  137.5958  162.7948 C.ar    1  UNL1        0.1237
     42 N         140.4993  137.6704  161.3202 N.ar    1  UNL1       -0.1699
@<TRIPOS>BOND
     1    37    38    1
     2    38    39   ar
     3    39    40   ar
     4    40    41   ar
     5    41    36    1
     6    36    35    1
     7    35    24    1
     8    24    25   ar
     9    25    26   ar
    10    26    27   ar
    11    27    28   ar
    12    28    29   ar
    13    29    30   ar
    14    30    31    2
    15    30    32   ar
    16    32    23    1
    17    23     1    1
    18     1     2    1
    19     2     3    1
    20     3     4    1
    21     4     5    1
    22     5     8    1
    23     8    10    1
    24    10    11    1
    25    11    12   ar
    26    12    13   ar
    27    13    14   ar
    28    14    15   ar
    29    15    16   ar
    30    15    17    1
    31    17    18   am
    32    18    19    2
    33    18    20    1
    34    20    21    1
    35     5     6    1
    36     6     7    1
    37    32    33   ar
    38    33    34   ar
    39    41    42   ar
    40    42    38   ar
    41    34    24   ar
    42    33    27   ar
    43     7     2    1
    44    16    11   ar
    45    21    14    1
    46     8     9    1
    47    17    22    1
@<TRIPOS>MOLECULE
*****
 42 47 0 0 0
SMALL
GASTEIGER

@<TRIPOS>ATOM
      1 C         141.6061  138.3494  159.7515 C.3     1  UNL1        0.0970
      2 N         142.5519  138.9919  160.7225 N.3     1  UNL1       -0.2710
      3 C         142.7189  138.4179  162.0983 C.3     1  UNL1        0.0735
      4 C         143.6646  139.0603  163.0692 C.3     1  UNL1        0.0331
      5 C         144.4435  140.2768  162.6644 C.3     1  UNL1        0.0570
      6 C         144.2765  140.8507  161.2887 C.3     1  UNL1        0.0331
      7 C         143.3307  140.2082  160.3177 C.3     1  UNL1        0.0735
      8 N         145.3893  140.9192  163.6354 N.3     1  UNL1       -0.2934
      9 H         146.3081  140.9235  163.1924 H       1  UNL1        0.1236
     10 C         145.1345  142.3165  164.1177 C.3     1  UNL1        0.1152
     11 C         143.7316  142.8432  164.1833 C.ar    1  UNL1        0.0765
     12 C         142.8452  142.4745  165.3359 C.ar    1  UNL1        0.0193
     13 C         141.4422  143.0012  165.4015 C.ar    1  UNL1        0.0411
     14 C         140.9257  143.8966  164.3146 C.ar    1  UNL1        0.1708
     15 C         141.8120  144.2653  163.1620 C.ar    1  UNL1        0.1682
     16 N         143.2150  143.7386  163.0963 N.ar    1  UNL1       -0.2304
     17 N         141.2954  145.1607  162.0751 N.am    1  UNL1       -0.2639
     18 C         139.8925  145.6873  162.1407 C.2     1  UNL1        0.2718
     19 O         139.3759  146.5827  161.0538 O.2     1  UNL1       -0.2707
     20 C         139.0061  145.3187  163.2933 C.3     1  UNL1        0.2898
     21 O         139.5227  144.4233  164.3802 O.3     1  UNL1       -0.4628
     22 H         141.8771  145.4026  161.3186 H       1  UNL1        0.1565
     23 C         140.1258  138.5254  159.9184 C.3     1  UNL1        0.1264
     24 C         138.4303  139.5320  163.9634 C.ar    1  UNL1        0.1597
     25 C         137.8614  140.8960  164.2198 C.ar    1  UNL1        0.1357
     26 N         137.8577  141.9245  163.1280 N.ar    1  UNL1       -0.2392
     27 C         138.4228  141.5889  161.7796 C.ar    1  UNL1        0.0975
     28 C         138.4191  142.6175  160.6877 C.ar    1  UNL1        0.0255
     29 C         138.9842  142.2820  159.3394 C.ar    1  UNL1        0.0623
     30 C         139.5532  140.9179  159.0830 C.ar    1  UNL1        0.2611
     31 O         140.1183  140.5823  157.7346 O.2     1  UNL1       -0.2670
     32 N         139.5569  139.8894  160.1748 N.ar    1  UNL1       -0.2926
     33 C         138.9917  140.2250  161.5232 C.ar    1  UNL1        0.0832
     34 C         138.9955  139.1965  162.6150 C.ar    1  UNL1        0.0573
     35 O         138.4341  138.5035  165.0553 O.3     1  UNL1       -0.4673
     36 C         138.0832  138.8987  166.4591 C.3     1  UNL1        0.2527
     37 C         140.5771  140.6774  170.7598 C.3     1  UNL1        0.1538
     38 N         140.2870  140.2656  169.3470 N.ar    1  UNL1       -0.2476
     39 C         141.2488  140.3211  168.1972 C.ar    1  UNL1        0.0965
     40 C         140.5403  139.8157  166.9754 C.ar    1  UNL1        0.0404
     41 C         139.1407  139.4480  167.3702 C.ar    1  UNL1        0.1237
     42 N         138.9841  139.7260  168.8358 N.ar    1  UNL1       -0.1699
@<TRIPOS>BOND
     1    37    38    1
     2    38    39   ar
     3    39    40   ar
     4    40    41   ar
     5    41    36    1
     6    36    35    1
     7    35    24    1
     8    24    25   ar
     9    25    26   ar
    10    26    27   ar
    11    27    28   ar
    12    28    29   ar
    13    29    30   ar
    14    30    31    2
    15    30    32   ar
    16    32    23    1
    17    23     1    1
    18     1     2    1
    19     2     3    1
    20     3     4    1
    21     4     5    1
    22     5     8    1
    23     8    10    1
    24    10    11    1
    25    11    12   ar
    26    12    13   ar
    27    13    14   ar
    28    14    15   ar
    29    15    16   ar
    30    15    17    1
    31    17    18   am
    32    18    19    2
    33    18    20    1
    34    20    21    1
    35     5     6    1
    36     6     7    1
    37    32    33   ar
    38    33    34   ar
    39    41    42   ar
    40    42    38   ar
    41    34    24   ar
    42    33    27   ar
    43     7     2    1
    44    16    11   ar
    45    21    14    1
    46     8     9    1
    47    17    22    1
