@<TRIPOS>MOLECULE
*****
 26 28 0 0 0
SMALL
GASTEIGER

@<TRIPOS>ATOM
      1 C         138.5192  139.1337  166.4773 C.ar    1  UNL1       -0.0209
      2 C         139.1551  139.7880  167.6679 C.ar    1  UNL1       -0.0041
      3 C         139.8574  141.1045  167.5141 C.ar    1  UNL1        0.0040
      4 C         139.9237  141.7667  166.1698 C.ar    1  UNL1        0.0189
      5 C         139.2878  141.1123  164.9793 C.ar    1  UNL1        0.1117
      6 C         138.5856  139.7958  165.1331 C.ar    1  UNL1        0.0145
      7 C         140.4933  141.7589  168.7047 C.ar    1  UNL1        0.0397
      8 C         139.8101  142.0902  169.9983 C.ar    1  UNL1        0.1216
      9 N         140.8186  142.7329  170.9038 N.ar    1  UNL1       -0.1676
     10 N         142.1252  142.7987  170.1698 N.ar    1  UNL1       -0.2473
     11 C         143.4075  143.3668  170.7015 C.3     1  UNL1        0.1538
     12 C         141.9241  142.1968  168.8107 C.ar    1  UNL1        0.0967
     13 S         139.3542  141.7744  163.6349 S.O2    1  UNL1        0.0443
     14 O         138.0708  141.1050  163.2418 O.2     1  UNL1       -0.1628
     15 O         140.6376  142.4439  164.0281 O.2     1  UNL1       -0.1628
     16 C         139.4206  142.4365  162.2907 C.ar    1  UNL1        0.1976
     17 C         138.8646  141.8889  161.0096 C.ar    1  UNL1        0.0749
     18 S         139.1550  142.8765  159.9186 S.2     1  UNL1       -0.0675
     19 C         139.8906  144.0345  160.5254 C.ar    1  UNL1        0.1055
     20 N         140.0547  143.7626  161.9913 N.ar    1  UNL1       -0.2229
     21 C         140.3766  145.2508  159.7944 C.3     1  UNL1        0.1186
     22 N         141.8457  145.5447  159.7212 N.3     1  UNL1       -0.3157
     23 H         142.1973  145.7551  160.6553 H       1  UNL1        0.1192
     24 H         142.0020  146.3466  159.1105 H       1  UNL1        0.1192
     25 C         136.8250  137.6212  167.7391 C.3     1  UNL1        0.0050
     26 C         137.8169  137.8172  166.6311 C.3     1  UNL1        0.0264
@<TRIPOS>BOND
     1    25    26    1
     2    26     1    1
     3     1     2   ar
     4     2     3   ar
     5     3     7    1
     6     7     8   ar
     7     8     9   ar
     8     9    10   ar
     9    10    11    1
    10    10    12   ar
    11     3     4   ar
    12     4     5   ar
    13     5    13    1
    14    13    14    2
    15    13    15    2
    16    13    16    1
    17    16    17   ar
    18    17    18   ar
    19    18    19   ar
    20    19    21    1
    21    21    22    1
    22    19    20   ar
    23     5     6   ar
    24     6     1   ar
    25    12     7   ar
    26    20    16   ar
    27    22    23    1
    28    22    24    1
@<TRIPOS>MOLECULE
*****
 26 28 0 0 0
SMALL
GASTEIGER

@<TRIPOS>ATOM
      1 C         139.0585  140.3953  165.6668 C.ar    1  UNL1       -0.0209
      2 C         139.8286  140.7808  166.8949 C.ar    1  UNL1       -0.0041
      3 C         140.7516  141.9627  166.8611 C.ar    1  UNL1        0.0040
      4 C         140.9045  142.7591  165.5993 C.ar    1  UNL1        0.0189
      5 C         140.1345  142.3736  164.3712 C.ar    1  UNL1        0.1117
      6 C         139.2115  141.1916  164.4049 C.ar    1  UNL1        0.0145
      7 C         141.5217  142.3482  168.0893 C.ar    1  UNL1        0.0397
      8 C         140.9436  142.9244  169.3478 C.ar    1  UNL1        0.1216
      9 N         142.0697  143.1575  170.3109 N.ar    1  UNL1       -0.1676
     10 N         143.3439  142.7253  169.6476 N.ar    1  UNL1       -0.2473
     11 C         144.7158  142.7832  170.2513 C.3     1  UNL1        0.1538
     12 C         143.0051  142.2252  168.2746 C.ar    1  UNL1        0.0967
     13 S         140.2874  143.1700  163.1092 S.O2    1  UNL1        0.0443
     14 O         141.5144  143.8247  163.6710 O.2     1  UNL1       -0.1628
     15 O         139.0603  142.5152  162.5474 O.2     1  UNL1       -0.1628
     16 C         140.4403  143.9663  161.8473 C.ar    1  UNL1        0.1976
     17 C         139.8343  145.3111  161.5745 C.ar    1  UNL1        0.0749
     18 S         140.2454  145.7336  160.1952 S.2     1  UNL1       -0.0675
     19 C         141.1056  144.6499  159.6156 C.ar    1  UNL1        0.1055
     20 N         141.2260  143.5577  160.6367 N.ar    1  UNL1       -0.2229
     21 C         141.7348  144.6572  158.2540 C.3     1  UNL1        0.1186
     22 N         142.5949  145.8112  157.8314 N.3     1  UNL1       -0.3157
     23 H         142.0233  146.6529  157.7598 H       1  UNL1        0.1192
     24 H         143.0155  145.6076  156.9247 H       1  UNL1        0.1192
     25 C         137.7146  138.6278  167.0157 C.3     1  UNL1        0.0050
     26 C         138.1355  139.2134  165.7005 C.3     1  UNL1        0.0264
@<TRIPOS>BOND
     1    25    26    1
     2    26     1    1
     3     1     2   ar
     4     2     3   ar
     5     3     7    1
     6     7     8   ar
     7     8     9   ar
     8     9    10   ar
     9    10    11    1
    10    10    12   ar
    11     3     4   ar
    12     4     5   ar
    13     5    13    1
    14    13    14    2
    15    13    15    2
    16    13    16    1
    17    16    17   ar
    18    17    18   ar
    19    18    19   ar
    20    19    21    1
    21    21    22    1
    22    19    20   ar
    23     5     6   ar
    24     6     1   ar
    25    12     7   ar
    26    20    16   ar
    27    22    23    1
    28    22    24    1
@<TRIPOS>MOLECULE
*****
 26 28 0 0 0
SMALL
GASTEIGER

@<TRIPOS>ATOM
      1 C         140.1079  144.4424  163.3505 C.ar    1  UNL1       -0.0209
      2 C         141.2991  143.5976  163.6932 C.ar    1  UNL1       -0.0041
      3 C         142.2373  143.1501  162.6118 C.ar    1  UNL1        0.0040
      4 C         141.9844  143.5474  161.1877 C.ar    1  UNL1        0.0189
      5 C         140.7933  144.3921  160.8449 C.ar    1  UNL1        0.1117
      6 C         139.8550  144.8396  161.9263 C.ar    1  UNL1        0.0145
      7 C         143.4285  142.3053  162.9546 C.ar    1  UNL1        0.0397
      8 C         144.8517  142.5941  162.5790 C.ar    1  UNL1        0.1216
      9 N         145.7084  141.4907  163.1254 N.ar    1  UNL1       -0.1676
     10 N         144.8146  140.5199  163.8387 N.ar    1  UNL1       -0.2473
     11 C         145.2529  139.2658  164.5353 C.3     1  UNL1        0.1538
     12 C         143.4056  141.0234  163.7331 C.ar    1  UNL1        0.0967
     13 S         140.5403  144.7894  159.4207 S.O2    1  UNL1        0.0443
     14 O         141.8349  145.5467  159.4020 O.2     1  UNL1       -0.1628
     15 O         139.2457  144.0321  159.4395 O.2     1  UNL1       -0.1628
     16 C         140.2873  145.1867  157.9966 C.ar    1  UNL1        0.1976
     17 C         140.4850  144.3173  156.7903 C.ar    1  UNL1        0.0749
     18 S         140.1121  145.1163  155.5769 S.2     1  UNL1       -0.0675
     19 C         139.6839  146.4796  156.0333 C.ar    1  UNL1        0.1055
     20 N         139.7922  146.5230  157.5287 N.ar    1  UNL1       -0.2229
     21 C         139.2275  147.6023  155.1494 C.3     1  UNL1        0.1186
     22 N         138.4644  148.7540  155.7335 N.3     1  UNL1       -0.3157
     23 H         137.5603  148.4256  156.0728 H       1  UNL1        0.1192
     24 H         138.3206  149.4651  155.0165 H       1  UNL1        0.1192
     25 C         137.8873  144.1480  164.6665 C.3     1  UNL1        0.0050
     26 C         139.1697  144.8899  164.4319 C.3     1  UNL1        0.0264
@<TRIPOS>BOND
     1    25    26    1
     2    26     1    1
     3     1     2   ar
     4     2     3   ar
     5     3     7    1
     6     7     8   ar
     7     8     9   ar
     8     9    10   ar
     9    10    11    1
    10    10    12   ar
    11     3     4   ar
    12     4     5   ar
    13     5    13    1
    14    13    14    2
    15    13    15    2
    16    13    16    1
    17    16    17   ar
    18    17    18   ar
    19    18    19   ar
    20    19    21    1
    21    21    22    1
    22    19    20   ar
    23     5     6   ar
    24     6     1   ar
    25    12     7   ar
    26    20    16   ar
    27    22    23    1
    28    22    24    1
@<TRIPOS>MOLECULE
*****
 26 28 0 0 0
SMALL
GASTEIGER

@<TRIPOS>ATOM
      1 C         142.7256  144.0026  163.7510 C.ar    1  UNL1       -0.0209
      2 C         141.8578  142.8735  164.2223 C.ar    1  UNL1       -0.0041
      3 C         140.7776  142.3354  163.3315 C.ar    1  UNL1        0.0040
      4 C         140.5651  142.9264  161.9693 C.ar    1  UNL1        0.0189
      5 C         141.4329  144.0554  161.4980 C.ar    1  UNL1        0.1117
      6 C         142.5131  144.5935  162.3888 C.ar    1  UNL1        0.0145
      7 C         139.9098  141.2063  163.8029 C.ar    1  UNL1        0.0397
      8 C         139.2289  140.1939  162.9303 C.ar    1  UNL1        0.1216
      9 N         138.4689  139.2533  163.8178 N.ar    1  UNL1       -0.1676
     10 N         138.6801  139.6844  165.2390 N.ar    1  UNL1       -0.2473
     11 C         138.1022  139.0244  166.4557 C.3     1  UNL1        0.1538
     12 C         139.5706  140.8914  165.2297 C.ar    1  UNL1        0.0967
     13 S         141.2204  144.6465  160.1357 S.O2    1  UNL1        0.0443
     14 O         142.6007  144.2180  159.7345 O.2     1  UNL1       -0.1628
     15 O         139.8401  145.0750  160.5370 O.2     1  UNL1       -0.1628
     16 C         141.0079  145.2375  158.7736 C.ar    1  UNL1        0.1976
     17 C         141.8790  145.0192  157.5721 C.ar    1  UNL1        0.0749
     18 S         141.2965  145.7974  156.4297 S.2     1  UNL1       -0.0675
     19 C         140.0653  146.4966  156.9252 C.ar    1  UNL1        0.1055
     20 N         139.8870  146.1505  158.3738 N.ar    1  UNL1       -0.2229
     21 C         139.1697  147.3857  156.1144 C.3     1  UNL1        0.1186
     22 N         138.4747  148.5446  156.7654 N.3     1  UNL1       -0.3157
     23 H         137.7992  148.1971  157.4462 H       1  UNL1        0.1192
     24 H         137.9900  149.0931  156.0550 H       1  UNL1        0.1192
     25 C         144.6112  143.6047  165.4934 C.3     1  UNL1        0.0050
     26 C         143.8058  144.5406  164.6418 C.3     1  UNL1        0.0264
@<TRIPOS>BOND
     1    25    26    1
     2    26     1    1
     3     1     2   ar
     4     2     3   ar
     5     3     7    1
     6     7     8   ar
     7     8     9   ar
     8     9    10   ar
     9    10    11    1
    10    10    12   ar
    11     3     4   ar
    12     4     5   ar
    13     5    13    1
    14    13    14    2
    15    13    15    2
    16    13    16    1
    17    16    17   ar
    18    17    18   ar
    19    18    19   ar
    20    19    21    1
    21    21    22    1
    22    19    20   ar
    23     5     6   ar
    24     6     1   ar
    25    12     7   ar
    26    20    16   ar
    27    22    23    1
    28    22    24    1
@<TRIPOS>MOLECULE
*****
 26 28 0 0 0
SMALL
GASTEIGER

@<TRIPOS>ATOM
      1 C         138.6730  144.3239  155.7222 C.ar    1  UNL1       -0.0209
      2 C         138.6688  145.6923  155.1079 C.ar    1  UNL1       -0.0041
      3 C         139.3412  146.8329  155.8127 C.ar    1  UNL1        0.0040
      4 C         140.0180  146.6052  157.1318 C.ar    1  UNL1        0.0189
      5 C         140.0222  145.2368  157.7461 C.ar    1  UNL1        0.1117
      6 C         139.3497  144.0961  157.0413 C.ar    1  UNL1        0.0145
      7 C         139.3370  148.2014  155.1983 C.ar    1  UNL1        0.0397
      8 C         139.9482  148.5786  153.8814 C.ar    1  UNL1        0.1216
      9 N         139.7097  150.0431  153.6622 N.ar    1  UNL1       -0.1676
     10 N         138.9510  150.5712  154.8436 N.ar    1  UNL1       -0.2473
     11 C         138.5016  151.9886  155.0410 C.3     1  UNL1        0.1538
     12 C         138.7207  149.4329  155.7929 C.ar    1  UNL1        0.0967
     13 S         140.6990  145.0090  159.0653 S.O2    1  UNL1        0.0443
     14 O         141.9029  145.7587  158.5772 O.2     1  UNL1       -0.1628
     15 O         139.4950  144.2592  159.5534 O.2     1  UNL1       -0.1628
     16 C         141.3756  144.7811  160.3844 C.ar    1  UNL1        0.1976
     17 C         140.7820  145.0432  161.7368 C.ar    1  UNL1        0.0749
     18 S         141.8042  144.6753  162.7710 S.2     1  UNL1       -0.0675
     19 C         143.0297  144.1857  162.0578 C.ar    1  UNL1        0.1055
     20 N         142.7648  144.2512  160.5828 N.ar    1  UNL1       -0.2229
     21 C         144.2975  143.7137  162.7058 C.3     1  UNL1        0.1186
     22 N         145.2047  142.7671  161.9773 N.3     1  UNL1       -0.3157
     23 H         144.7327  141.8714  161.8532 H       1  UNL1        0.1192
     24 H         146.0581  142.6295  162.5188 H       1  UNL1        0.1192
     25 C         136.6062  142.7832  155.3990 C.3     1  UNL1        0.0050
     26 C         138.0006  143.1833  155.0174 C.3     1  UNL1        0.0264
@<TRIPOS>BOND
     1    25    26    1
     2    26     1    1
     3     1     2   ar
     4     2     3   ar
     5     3     7    1
     6     7     8   ar
     7     8     9   ar
     8     9    10   ar
     9    10    11    1
    10    10    12   ar
    11     3     4   ar
    12     4     5   ar
    13     5    13    1
    14    13    14    2
    15    13    15    2
    16    13    16    1
    17    16    17   ar
    18    17    18   ar
    19    18    19   ar
    20    19    21    1
    21    21    22    1
    22    19    20   ar
    23     5     6   ar
    24     6     1   ar
    25    12     7   ar
    26    20    16   ar
    27    22    23    1
    28    22    24    1
@<TRIPOS>MOLECULE
*****
 26 28 0 0 0
SMALL
GASTEIGER

@<TRIPOS>ATOM
      1 C         138.2902  139.3143  166.6710 C.ar    1  UNL1       -0.0209
      2 C         139.3753  139.9724  167.4706 C.ar    1  UNL1       -0.0041
      3 C         140.3012  140.9530  166.8140 C.ar    1  UNL1        0.0040
      4 C         140.1420  141.2755  165.3578 C.ar    1  UNL1        0.0189
      5 C         139.0569  140.6174  164.5582 C.ar    1  UNL1        0.1117
      6 C         138.1310  139.6368  165.2147 C.ar    1  UNL1        0.0145
      7 C         141.3863  141.6111  167.6137 C.ar    1  UNL1        0.0397
      8 C         142.7808  141.8966  167.1405 C.ar    1  UNL1        0.1216
      9 N         143.5237  142.5612  168.2613 N.ar    1  UNL1       -0.1676
     10 N         142.5884  142.6865  169.4273 N.ar    1  UNL1       -0.2473
     11 C         142.9165  143.2925  170.7596 C.3     1  UNL1        0.1538
     12 C         141.2674  142.0993  169.0271 C.ar    1  UNL1        0.0967
     13 S         138.8977  140.9399  163.1019 S.O2    1  UNL1        0.0443
     14 O         139.4580  142.3101  163.3440 O.2     1  UNL1       -0.1628
     15 O         138.3374  139.5697  162.8597 O.2     1  UNL1       -0.1628
     16 C         138.7385  141.2623  161.6456 C.ar    1  UNL1        0.1976
     17 C         138.6454  142.6367  161.0519 C.ar    1  UNL1        0.0749
     18 S         138.4938  142.4908  159.5668 S.2     1  UNL1       -0.0675
     19 C         138.4931  141.0262  159.2426 C.ar    1  UNL1        0.1055
     20 N         138.6443  140.2670  160.5274 N.ar    1  UNL1       -0.2229
     21 C         138.3639  140.4262  157.8739 C.3     1  UNL1        0.1186
     22 N         137.0137  140.3081  157.2312 N.3     1  UNL1       -0.3157
     23 H         136.4415  139.6503  157.7606 H       1  UNL1        0.1192
     24 H         137.1210  139.9718  156.2742 H       1  UNL1        0.1192
     25 C         137.3817  136.8923  166.9129 C.3     1  UNL1        0.0050
     26 C         137.3643  138.3337  167.3275 C.3     1  UNL1        0.0264
@<TRIPOS>BOND
     1    25    26    1
     2    26     1    1
     3     1     2   ar
     4     2     3   ar
     5     3     7    1
     6     7     8   ar
     7     8     9   ar
     8     9    10   ar
     9    10    11    1
    10    10    12   ar
    11     3     4   ar
    12     4     5   ar
    13     5    13    1
    14    13    14    2
    15    13    15    2
    16    13    16    1
    17    16    17   ar
    18    17    18   ar
    19    18    19   ar
    20    19    21    1
    21    21    22    1
    22    19    20   ar
    23     5     6   ar
    24     6     1   ar
    25    12     7   ar
    26    20    16   ar
    27    22    23    1
    28    22    24    1
@<TRIPOS>MOLECULE
*****
 26 28 0 0 0
SMALL
GASTEIGER

@<TRIPOS>ATOM
      1 C         138.8313  140.4396  162.9578 C.ar    1  UNL1       -0.0209
      2 C         138.9328  141.6236  162.0425 C.ar    1  UNL1       -0.0041
      3 C         139.6801  142.8482  162.4805 C.ar    1  UNL1        0.0040
      4 C         140.3259  142.8888  163.8337 C.ar    1  UNL1        0.0189
      5 C         140.2244  141.7047  164.7490 C.ar    1  UNL1        0.1117
      6 C         139.4771  140.4801  164.3110 C.ar    1  UNL1        0.0145
      7 C         139.7816  144.0323  161.5652 C.ar    1  UNL1        0.0397
      8 C         139.5807  145.4670  161.9540 C.ar    1  UNL1        0.1216
      9 N         139.7768  146.3109  160.7295 N.ar    1  UNL1       -0.1676
     10 N         140.0989  145.3977  159.5839 N.ar    1  UNL1       -0.2473
     11 C         140.3703  145.8189  158.1701 C.3     1  UNL1        0.1538
     12 C         140.1019  143.9895  160.1004 C.ar    1  UNL1        0.0967
     13 S         140.8702  141.7452  166.1023 S.O2    1  UNL1        0.0443
     14 O         141.0729  140.2599  166.0500 O.2     1  UNL1       -0.1628
     15 O         140.6675  143.2305  166.1545 O.2     1  UNL1       -0.1628
     16 C         141.5160  141.7858  167.4555 C.ar    1  UNL1        0.1976
     17 C         142.9345  142.1791  167.7441 C.ar    1  UNL1        0.0749
     18 S         143.1519  142.0765  169.2247 S.2     1  UNL1       -0.0675
     19 C         141.8677  141.6199  169.8512 C.ar    1  UNL1        0.1055
     20 N         140.8567  141.4402  168.7577 N.ar    1  UNL1       -0.2229
     21 C         141.6353  141.3843  171.3142 C.3     1  UNL1        0.1186
     22 N         140.5185  142.0945  172.0202 N.3     1  UNL1       -0.3157
     23 H         140.7095  143.0963  172.0369 H       1  UNL1        0.1192
     24 H         140.4448  141.7465  172.9761 H       1  UNL1        0.1192
     25 C         138.8306  137.9514  162.2100 C.3     1  UNL1        0.0050
     26 C         138.0839  139.2150  162.5198 C.3     1  UNL1        0.0264
@<TRIPOS>BOND
     1    25    26    1
     2    26     1    1
     3     1     2   ar
     4     2     3   ar
     5     3     7    1
     6     7     8   ar
     7     8     9   ar
     8     9    10   ar
     9    10    11    1
    10    10    12   ar
    11     3     4   ar
    12     4     5   ar
    13     5    13    1
    14    13    14    2
    15    13    15    2
    16    13    16    1
    17    16    17   ar
    18    17    18   ar
    19    18    19   ar
    20    19    21    1
    21    21    22    1
    22    19    20   ar
    23     5     6   ar
    24     6     1   ar
    25    12     7   ar
    26    20    16   ar
    27    22    23    1
    28    22    24    1
@<TRIPOS>MOLECULE
*****
 26 28 0 0 0
SMALL
GASTEIGER

@<TRIPOS>ATOM
      1 C         143.2802  140.9193  162.2128 C.ar    1  UNL1       -0.0209
      2 C         142.6272  141.9385  161.3270 C.ar    1  UNL1       -0.0041
      3 C         141.8212  143.0504  161.9304 C.ar    1  UNL1        0.0040
      4 C         141.6682  143.1431  163.4196 C.ar    1  UNL1        0.0189
      5 C         142.3212  142.1239  164.3055 C.ar    1  UNL1        0.1117
      6 C         143.1272  141.0120  163.7021 C.ar    1  UNL1        0.0145
      7 C         141.1682  144.0697  161.0444 C.ar    1  UNL1        0.0397
      8 C         140.1602  145.0943  161.4733 C.ar    1  UNL1        0.1216
      9 N         139.7776  145.9010  160.2680 N.ar    1  UNL1       -0.1676
     10 N         140.5493  145.3751  159.0941 N.ar    1  UNL1       -0.2473
     11 C         140.4746  145.8904  157.6874 C.3     1  UNL1        0.1538
     12 C         141.4087  144.2432  159.5740 C.ar    1  UNL1        0.0967
     13 S         142.1682  142.2166  165.7948 S.O2    1  UNL1        0.0443
     14 O         143.3000  141.2482  165.9714 O.2     1  UNL1       -0.1628
     15 O         141.0364  143.1850  165.6183 O.2     1  UNL1       -0.1628
     16 C         142.0152  142.3093  167.2841 C.ar    1  UNL1        0.1976
     17 C         143.1255  142.2410  168.2905 C.ar    1  UNL1        0.0749
     18 S         142.5215  142.3761  169.6568 S.2     1  UNL1       -0.0675
     19 C         141.0380  142.5277  169.4949 C.ar    1  UNL1        0.1055
     20 N         140.7251  142.4864  168.0285 N.ar    1  UNL1       -0.2229
     21 C         140.0422  142.6919  170.6047 C.3     1  UNL1        0.1186
     22 N         140.3642  142.1913  171.9815 N.3     1  UNL1       -0.3157
     23 H         140.4356  141.1739  171.9653 H       1  UNL1        0.1192
     24 H         139.6247  142.4700  172.6262 H       1  UNL1        0.1192
     25 C         143.8473  138.3900  162.0380 C.3     1  UNL1        0.0050
     26 C         144.0861  139.8074  161.6094 C.3     1  UNL1        0.0264
@<TRIPOS>BOND
     1    25    26    1
     2    26     1    1
     3     1     2   ar
     4     2     3   ar
     5     3     7    1
     6     7     8   ar
     7     8     9   ar
     8     9    10   ar
     9    10    11    1
    10    10    12   ar
    11     3     4   ar
    12     4     5   ar
    13     5    13    1
    14    13    14    2
    15    13    15    2
    16    13    16    1
    17    16    17   ar
    18    17    18   ar
    19    18    19   ar
    20    19    21    1
    21    21    22    1
    22    19    20   ar
    23     5     6   ar
    24     6     1   ar
    25    12     7   ar
    26    20    16   ar
    27    22    23    1
    28    22    24    1
@<TRIPOS>MOLECULE
*****
 26 28 0 0 0
SMALL
GASTEIGER

@<TRIPOS>ATOM
      1 C         139.7346  145.7778  155.9642 C.ar    1  UNL1       -0.0209
      2 C         138.7964  144.6638  155.6052 C.ar    1  UNL1       -0.0041
      3 C         138.4876  143.5911  156.6071 C.ar    1  UNL1        0.0040
      4 C         139.1169  143.6323  157.9681 C.ar    1  UNL1        0.0189
      5 C         140.0550  144.7463  158.3271 C.ar    1  UNL1        0.1117
      6 C         140.3639  145.8190  157.3252 C.ar    1  UNL1        0.0145
      7 C         137.5494  142.4771  156.2480 C.ar    1  UNL1        0.0397
      8 C         137.5790  141.0851  156.8059 C.ar    1  UNL1        0.1216
      9 N         136.4648  140.3073  156.1707 N.ar    1  UNL1       -0.1676
     10 N         135.7465  141.2187  155.2201 N.ar    1  UNL1       -0.2473
     11 C         134.5653  140.8532  154.3709 C.3     1  UNL1        0.1538
     12 C         136.4168  142.5597  155.2679 C.ar    1  UNL1        0.0967
     13 S         140.6844  144.7875  159.6881 S.O2    1  UNL1        0.0443
     14 O         141.9149  145.4120  159.1002 O.2     1  UNL1       -0.1628
     15 O         139.4538  144.1631  160.2760 O.2     1  UNL1       -0.1628
     16 C         141.3136  144.8287  161.0491 C.ar    1  UNL1        0.1976
     17 C         140.6831  145.3748  162.2958 C.ar    1  UNL1        0.0749
     18 S         141.6637  145.2147  163.4196 S.2     1  UNL1       -0.0675
     19 C         142.9003  144.5697  162.8673 C.ar    1  UNL1        0.1055
     20 N         142.6839  144.3312  161.4023 N.ar    1  UNL1       -0.2229
     21 C         144.1363  144.2240  163.6437 C.3     1  UNL1        0.1186
     22 N         144.0189  143.5650  164.9861 N.3     1  UNL1       -0.3157
     23 H         143.5788  144.2088  165.6436 H       1  UNL1        0.1192
     24 H         144.9481  143.3156  165.3249 H       1  UNL1        0.1192
     25 C         139.2513  148.1243  154.9590 C.3     1  UNL1        0.0050
     26 C         140.0435  146.8505  154.9623 C.3     1  UNL1        0.0264
@<TRIPOS>BOND
     1    25    26    1
     2    26     1    1
     3     1     2   ar
     4     2     3   ar
     5     3     7    1
     6     7     8   ar
     7     8     9   ar
     8     9    10   ar
     9    10    11    1
    10    10    12   ar
    11     3     4   ar
    12     4     5   ar
    13     5    13    1
    14    13    14    2
    15    13    15    2
    16    13    16    1
    17    16    17   ar
    18    17    18   ar
    19    18    19   ar
    20    19    21    1
    21    21    22    1
    22    19    20   ar
    23     5     6   ar
    24     6     1   ar
    25    12     7   ar
    26    20    16   ar
    27    22    23    1
    28    22    24    1
