@<TRIPOS>MOLECULE
*****
 35 38 0 0 0
SMALL
GASTEIGER

@<TRIPOS>ATOM
      1 C         138.0636  140.9785  163.1608 C.2     1  UNL1        0.2494
      2 O         136.8246  141.7983  162.9546 O.2     1  UNL1       -0.2699
      3 N         138.7414  140.3356  161.9872 N.am    1  UNL1       -0.2660
      4 C         139.9806  139.5157  162.1934 C.3     1  UNL1        0.1160
      5 C         140.6584  138.8729  161.0198 C.3     1  UNL1        0.1197
      6 N         140.0971  139.0499  159.6401 N.am    1  UNL1       -0.2555
      7 C         138.8581  139.8697  159.4339 C.2     1  UNL1        0.2497
      8 O         138.2968  140.0467  158.0542 O.2     1  UNL1       -0.2727
      9 C         138.1802  140.5126  160.6075 C.3     1  UNL1        0.1799
     10 C         139.7474  140.4475  167.3000 C.ar    1  UNL1        0.1057
     11 C         140.2098  141.5883  166.4429 C.ar    1  UNL1        0.0185
     12 C         139.6485  141.7653  165.0631 C.ar    1  UNL1        0.0058
     13 C         138.6249  140.8015  164.5405 C.ar    1  UNL1        0.0537
     14 C         138.1624  139.6607  165.3977 C.ar    1  UNL1        0.0058
     15 C         138.7237  139.4837  166.7774 C.ar    1  UNL1        0.0185
     16 C         140.8698  140.0935  170.0595 C.3     1  UNL1        0.1816
     17 S         140.3086  140.2705  168.6798 S.O2    1  UNL1        0.0104
     18 O         139.0426  139.5891  169.1073 O.2     1  UNL1       -0.1686
     19 O         141.5746  140.9519  168.2522 O.2     1  UNL1       -0.1686
     20 C         140.7750  138.4070  158.4665 C.ar    1  UNL1        0.0541
     21 C         139.9658  137.6521  157.4540 C.ar    1  UNL1        0.0180
     22 C         140.6437  137.0092  156.2805 C.ar    1  UNL1        0.0382
     23 C         142.1308  137.1213  156.1195 C.ar    1  UNL1        0.1386
     24 C         142.9400  137.8762  157.1320 C.ar    1  UNL1        0.0382
     25 C         142.2621  138.5190  158.3055 C.ar    1  UNL1        0.0180
     26 O         142.8087  136.4784  154.9459 O.3     1  UNL1       -0.4754
     27 C         141.9904  135.8165  153.8772 C.3     1  UNL1        0.2068
     28 C         141.8834  134.3210  153.8328 C.3     1  UNL1        0.0646
     29 C         141.6867  133.5451  155.1015 C.3     1  UNL1        0.0759
     30 N         142.8761  133.0725  155.8836 N.3     1  UNL1       -0.2726
     31 C         143.6919  131.9172  155.3835 C.3     1  UNL1        0.0721
     32 C         144.8813  131.4446  156.1656 C.3     1  UNL1        0.0174
     33 C         145.2551  132.1272  157.4479 C.3     1  UNL1        0.0029
     34 C         144.4395  133.2824  157.9481 C.3     1  UNL1        0.0174
     35 C         143.2500  133.7550  157.1660 C.3     1  UNL1        0.0721
@<TRIPOS>BOND
     1    16    17    1
     2    17    18    2
     3    17    19    2
     4    17    10    1
     5    10    11   ar
     6    11    12   ar
     7    12    13   ar
     8    13     1    1
     9     1     2    2
    10     1     3   am
    11     3     4    1
    12     4     5    1
    13     5     6    1
    14     6    20    1
    15    20    21   ar
    16    21    22   ar
    17    22    23   ar
    18    23    26    1
    19    26    27    1
    20    27    28    1
    21    28    29    1
    22    29    30    1
    23    30    31    1
    24    31    32    1
    25    32    33    1
    26    33    34    1
    27    34    35    1
    28    23    24   ar
    29    24    25   ar
    30     6     7   am
    31     7     8    2
    32     7     9    1
    33    13    14   ar
    34    14    15   ar
    35    15    10   ar
    36     9     3    1
    37    25    20   ar
    38    35    30    1
@<TRIPOS>MOLECULE
*****
 35 38 0 0 0
SMALL
GASTEIGER

@<TRIPOS>ATOM
      1 C         143.7153  137.0253  156.0513 C.2     1  UNL1        0.2494
      2 O         144.9956  137.4868  155.4206 O.2     1  UNL1       -0.2699
      3 N         142.9005  137.9765  156.8767 N.am    1  UNL1       -0.2660
      4 C         141.6201  137.5150  157.5074 C.3     1  UNL1        0.1160
      5 C         140.8053  138.4661  158.3328 C.3     1  UNL1        0.1197
      6 N         141.2707  139.8788  158.5275 N.am    1  UNL1       -0.2555
      7 C         142.5510  140.3402  157.8968 C.2     1  UNL1        0.2497
      8 O         143.0164  141.7529  158.0914 O.2     1  UNL1       -0.2727
      9 C         143.3659  139.3891  157.0713 C.3     1  UNL1        0.1799
     10 C         142.3191  132.7875  155.4673 C.ar    1  UNL1        0.1057
     11 C         142.1099  133.8022  154.3827 C.ar    1  UNL1        0.0185
     12 C         142.5754  135.2148  154.5774 C.ar    1  UNL1        0.0058
     13 C         143.2499  135.6127  155.8567 C.ar    1  UNL1        0.0537
     14 C         143.4590  134.5979  156.9413 C.ar    1  UNL1        0.0058
     15 C         142.9936  133.1853  156.7466 C.ar    1  UNL1        0.0185
     16 C         141.3882  129.9622  155.0780 C.3     1  UNL1        0.1816
     17 S         141.8536  131.3749  155.2727 S.O2    1  UNL1        0.0104
     18 O         142.9526  130.8890  156.1706 O.2     1  UNL1       -0.1686
     19 O         140.7547  131.8607  154.3748 O.2     1  UNL1       -0.1686
     20 C         140.4557  140.8299  159.3529 C.ar    1  UNL1        0.0541
     21 C         140.7772  141.0284  160.8045 C.ar    1  UNL1        0.0180
     22 C         139.9623  141.9795  161.6298 C.ar    1  UNL1        0.0382
     23 C         138.8259  142.7322  161.0036 C.ar    1  UNL1        0.1386
     24 C         138.5044  142.5337  159.5520 C.ar    1  UNL1        0.0382
     25 C         139.3194  141.5825  158.7266 C.ar    1  UNL1        0.0180
     26 O         138.0110  143.6833  161.8290 O.3     1  UNL1       -0.4754
     27 C         137.6351  143.3233  163.2358 C.3     1  UNL1        0.2068
     28 C         138.3069  144.0065  164.3898 C.3     1  UNL1        0.0646
     29 C         139.4201  144.9805  164.1400 C.3     1  UNL1        0.0759
     30 N         140.8472  144.5394  164.2764 N.3     1  UNL1       -0.2726
     31 C         141.9477  145.3641  163.6771 C.3     1  UNL1        0.0721
     32 C         143.3748  144.9230  163.8135 C.3     1  UNL1        0.0174
     33 C         143.7016  143.6573  164.5491 C.3     1  UNL1        0.0029
     34 C         142.6013  142.8327  165.1484 C.3     1  UNL1        0.0174
     35 C         141.1740  143.2737  165.0120 C.3     1  UNL1        0.0721
@<TRIPOS>BOND
     1    16    17    1
     2    17    18    2
     3    17    19    2
     4    17    10    1
     5    10    11   ar
     6    11    12   ar
     7    12    13   ar
     8    13     1    1
     9     1     2    2
    10     1     3   am
    11     3     4    1
    12     4     5    1
    13     5     6    1
    14     6    20    1
    15    20    21   ar
    16    21    22   ar
    17    22    23   ar
    18    23    26    1
    19    26    27    1
    20    27    28    1
    21    28    29    1
    22    29    30    1
    23    30    31    1
    24    31    32    1
    25    32    33    1
    26    33    34    1
    27    34    35    1
    28    23    24   ar
    29    24    25   ar
    30     6     7   am
    31     7     8    2
    32     7     9    1
    33    13    14   ar
    34    14    15   ar
    35    15    10   ar
    36     9     3    1
    37    25    20   ar
    38    35    30    1
@<TRIPOS>MOLECULE
*****
 35 38 0 0 0
SMALL
GASTEIGER

@<TRIPOS>ATOM
      1 C         143.7307  137.0762  155.9973 C.2     1  UNL1        0.2494
      2 O         145.0152  137.5068  155.3532 O.2     1  UNL1       -0.2699
      3 N         142.9461  138.0474  156.8284 N.am    1  UNL1       -0.2660
      4 C         141.6616  137.6168  157.4725 C.3     1  UNL1        0.1160
      5 C         140.8769  138.5881  158.3037 C.3     1  UNL1        0.1197
      6 N         141.3766  139.9899  158.4908 N.am    1  UNL1       -0.2555
      7 C         142.6610  140.4206  157.8468 C.2     1  UNL1        0.2497
      8 O         143.1608  141.8224  158.0340 O.2     1  UNL1       -0.2727
      9 C         143.4458  139.4493  157.0156 C.3     1  UNL1        0.1799
     10 C         142.2315  132.8706  155.4357 C.ar    1  UNL1        0.1057
     11 C         141.9869  133.9020  154.3745 C.ar    1  UNL1        0.0185
     12 C         142.4867  135.3038  154.5616 C.ar    1  UNL1        0.0058
     13 C         143.2310  135.6743  155.8101 C.ar    1  UNL1        0.0537
     14 C         143.4756  134.6429  156.8714 C.ar    1  UNL1        0.0058
     15 C         142.9759  133.2410  156.6842 C.ar    1  UNL1        0.0185
     16 C         141.2321  130.0668  155.0614 C.3     1  UNL1        0.1816
     17 S         141.7318  131.4687  155.2486 S.O2    1  UNL1        0.0104
     18 O         140.8920  131.9225  154.0915 O.2     1  UNL1       -0.1686
     19 O         142.5716  131.0149  156.4057 O.2     1  UNL1       -0.1686
     20 C         140.5918  140.9612  159.3221 C.ar    1  UNL1        0.0541
     21 C         141.1476  141.4530  160.6256 C.ar    1  UNL1        0.0180
     22 C         140.3629  142.4242  161.4568 C.ar    1  UNL1        0.0382
     23 C         139.0223  142.9036  160.9844 C.ar    1  UNL1        0.1386
     24 C         138.4666  142.4119  159.6808 C.ar    1  UNL1        0.0382
     25 C         139.2513  141.4406  158.8497 C.ar    1  UNL1        0.0180
     26 O         138.2376  143.8749  161.8156 O.3     1  UNL1       -0.4754
     27 C         137.9359  143.5610  163.2510 C.3     1  UNL1        0.2068
     28 C         137.2712  142.2657  163.6118 C.3     1  UNL1        0.0646
     29 C         138.0555  141.1849  164.2950 C.3     1  UNL1        0.0759
     30 N         138.7174  140.1112  163.4833 N.3     1  UNL1       -0.2726
     31 C         138.0224  139.5440  162.2809 C.3     1  UNL1        0.0721
     32 C         138.6843  138.4703  161.4692 C.3     1  UNL1        0.0174
     33 C         140.0410  137.9636  161.8597 C.3     1  UNL1        0.0029
     34 C         140.7359  138.5306  163.0620 C.3     1  UNL1        0.0174
     35 C         140.0741  139.6045  163.8738 C.3     1  UNL1        0.0721
@<TRIPOS>BOND
     1    16    17    1
     2    17    18    2
     3    17    19    2
     4    17    10    1
     5    10    11   ar
     6    11    12   ar
     7    12    13   ar
     8    13     1    1
     9     1     2    2
    10     1     3   am
    11     3     4    1
    12     4     5    1
    13     5     6    1
    14     6    20    1
    15    20    21   ar
    16    21    22   ar
    17    22    23   ar
    18    23    26    1
    19    26    27    1
    20    27    28    1
    21    28    29    1
    22    29    30    1
    23    30    31    1
    24    31    32    1
    25    32    33    1
    26    33    34    1
    27    34    35    1
    28    23    24   ar
    29    24    25   ar
    30     6     7   am
    31     7     8    2
    32     7     9    1
    33    13    14   ar
    34    14    15   ar
    35    15    10   ar
    36     9     3    1
    37    25    20   ar
    38    35    30    1
@<TRIPOS>MOLECULE
*****
 35 38 0 0 0
SMALL
GASTEIGER

@<TRIPOS>ATOM
      1 C         138.7665  146.4713  155.3638 C.2     1  UNL1        0.2494
      2 O         137.5661  145.8021  154.7629 O.2     1  UNL1       -0.2699
      3 N         139.6612  145.7098  156.2963 N.am    1  UNL1       -0.2660
      4 C         140.8617  146.3790  156.8974 C.3     1  UNL1        0.1160
      5 C         141.7564  145.6175  157.8298 C.3     1  UNL1        0.1197
      6 N         141.4508  144.1869  158.1613 N.am    1  UNL1       -0.2555
      7 C         140.2504  143.5177  157.5603 C.2     1  UNL1        0.2497
      8 O         139.9448  142.0871  157.8918 O.2     1  UNL1       -0.2727
      9 C         139.3556  144.2792  156.6278 C.3     1  UNL1        0.1799
     10 C         139.6834  150.7632  154.3694 C.ar    1  UNL1        0.1057
     11 C         140.2365  149.6608  153.5157 C.ar    1  UNL1        0.0185
     12 C         139.9309  148.2302  153.8472 C.ar    1  UNL1        0.0058
     13 C         139.0721  147.9019  155.0324 C.ar    1  UNL1        0.0537
     14 C         138.5189  149.0042  155.8860 C.ar    1  UNL1        0.0058
     15 C         138.8245  150.4349  155.5545 C.ar    1  UNL1        0.0185
     16 C         140.2946  153.6244  153.7064 C.3     1  UNL1        0.1816
     17 S         139.9890  152.1938  154.0379 S.O2    1  UNL1        0.0104
     18 O         141.3393  152.0531  154.6757 O.2     1  UNL1       -0.1686
     19 O         138.6387  152.3345  153.4000 O.2     1  UNL1       -0.1686
     20 C         142.3456  143.4255  159.0939 C.ar    1  UNL1        0.0541
     21 C         141.8423  143.0107  160.4446 C.ar    1  UNL1        0.0180
     22 C         142.7371  142.2493  161.3770 C.ar    1  UNL1        0.0382
     23 C         144.1353  141.9026  160.9587 C.ar    1  UNL1        0.1386
     24 C         144.6386  142.3174  159.6080 C.ar    1  UNL1        0.0382
     25 C         143.7438  143.0788  158.6756 C.ar    1  UNL1        0.0180
     26 O         145.0301  141.1412  161.8913 O.3     1  UNL1       -0.4754
     27 C         144.4355  140.3029  162.9838 C.3     1  UNL1        0.2068
     28 C         144.7785  140.5850  164.4165 C.3     1  UNL1        0.0646
     29 C         143.8192  141.3480  165.2812 C.3     1  UNL1        0.0759
     30 N         143.2549  142.6534  164.8043 N.3     1  UNL1       -0.2726
     31 C         144.1758  143.7515  164.3614 C.3     1  UNL1        0.0721
     32 C         143.6115  145.0569  163.8845 C.3     1  UNL1        0.0174
     33 C         142.1263  145.2643  163.8505 C.3     1  UNL1        0.0029
     34 C         141.2054  144.1662  164.2933 C.3     1  UNL1        0.0174
     35 C         141.7697  142.8607  164.7703 C.3     1  UNL1        0.0721
@<TRIPOS>BOND
     1    16    17    1
     2    17    18    2
     3    17    19    2
     4    17    10    1
     5    10    11   ar
     6    11    12   ar
     7    12    13   ar
     8    13     1    1
     9     1     2    2
    10     1     3   am
    11     3     4    1
    12     4     5    1
    13     5     6    1
    14     6    20    1
    15    20    21   ar
    16    21    22   ar
    17    22    23   ar
    18    23    26    1
    19    26    27    1
    20    27    28    1
    21    28    29    1
    22    29    30    1
    23    30    31    1
    24    31    32    1
    25    32    33    1
    26    33    34    1
    27    34    35    1
    28    23    24   ar
    29    24    25   ar
    30     6     7   am
    31     7     8    2
    32     7     9    1
    33    13    14   ar
    34    14    15   ar
    35    15    10   ar
    36     9     3    1
    37    25    20   ar
    38    35    30    1
@<TRIPOS>MOLECULE
*****
 35 38 0 0 0
SMALL
GASTEIGER

@<TRIPOS>ATOM
      1 C         143.2318  138.3556  156.6996 C.2     1  UNL1        0.2494
      2 O         143.7937  139.3445  155.7218 O.2     1  UNL1       -0.2699
      3 N         143.1132  138.7196  158.1499 N.am    1  UNL1       -0.2660
      4 C         142.5512  137.7307  159.1279 C.3     1  UNL1        0.1160
      5 C         142.4326  138.0947  160.5782 C.3     1  UNL1        0.1197
      6 N         142.8760  139.4475  161.0506 N.am    1  UNL1       -0.2555
      7 C         143.4380  140.4364  160.0728 C.2     1  UNL1        0.2497
      8 O         143.8814  141.7893  160.5452 O.2     1  UNL1       -0.2727
      9 C         143.5566  140.0725  158.6224 C.3     1  UNL1        0.1799
     10 C         141.9016  134.2971  155.2823 C.ar    1  UNL1        0.1057
     11 C         143.3151  134.5060  155.7386 C.ar    1  UNL1        0.0185
     12 C         143.7585  135.8589  156.2110 C.ar    1  UNL1        0.0058
     13 C         142.7884  137.0028  156.2272 C.ar    1  UNL1        0.0537
     14 C         141.3748  136.7938  155.7709 C.ar    1  UNL1        0.0058
     15 C         140.9314  135.4410  155.2985 C.ar    1  UNL1        0.0185
     16 C         141.0148  131.5914  154.3375 C.3     1  UNL1        0.1816
     17 S         141.4582  132.9442  154.8099 S.O2    1  UNL1        0.0104
     18 O         141.8234  132.3593  156.1420 O.2     1  UNL1       -0.1686
     19 O         141.0929  133.5291  153.4778 O.2     1  UNL1       -0.1686
     20 C         142.7574  139.8115  162.5010 C.ar    1  UNL1        0.0541
     21 C         141.8198  140.9024  162.9263 C.ar    1  UNL1        0.0180
     22 C         141.7013  141.2662  164.3766 C.ar    1  UNL1        0.0382
     23 C         142.5203  140.5393  165.4017 C.ar    1  UNL1        0.1386
     24 C         143.4579  139.4484  164.9764 C.ar    1  UNL1        0.0382
     25 C         143.5764  139.0845  163.5261 C.ar    1  UNL1        0.0180
     26 O         142.4017  140.9032  166.8520 O.3     1  UNL1       -0.4754
     27 C         141.3792  140.2245  167.7144 C.3     1  UNL1        0.2068
     28 C         139.9205  140.5118  167.5156 C.3     1  UNL1        0.0646
     29 C         139.0135  139.4472  166.9733 C.3     1  UNL1        0.0759
     30 N         139.0632  139.0896  165.5175 N.3     1  UNL1       -0.2726
     31 C         139.9340  137.9605  165.0518 C.3     1  UNL1        0.0721
     32 C         139.9837  137.6028  163.5959 C.3     1  UNL1        0.0174
     33 C         139.1626  138.3743  162.6057 C.3     1  UNL1        0.0029
     34 C         138.2918  139.5034  163.0713 C.3     1  UNL1        0.0174
     35 C         138.2421  139.8611  164.5272 C.3     1  UNL1        0.0721
@<TRIPOS>BOND
     1    16    17    1
     2    17    18    2
     3    17    19    2
     4    17    10    1
     5    10    11   ar
     6    11    12   ar
     7    12    13   ar
     8    13     1    1
     9     1     2    2
    10     1     3   am
    11     3     4    1
    12     4     5    1
    13     5     6    1
    14     6    20    1
    15    20    21   ar
    16    21    22   ar
    17    22    23   ar
    18    23    26    1
    19    26    27    1
    20    27    28    1
    21    28    29    1
    22    29    30    1
    23    30    31    1
    24    31    32    1
    25    32    33    1
    26    33    34    1
    27    34    35    1
    28    23    24   ar
    29    24    25   ar
    30     6     7   am
    31     7     8    2
    32     7     9    1
    33    13    14   ar
    34    14    15   ar
    35    15    10   ar
    36     9     3    1
    37    25    20   ar
    38    35    30    1
@<TRIPOS>MOLECULE
*****
 35 38 0 0 0
SMALL
GASTEIGER

@<TRIPOS>ATOM
      1 C         138.8869  146.2574  155.5278 C.2     1  UNL1        0.2494
      2 O         137.6776  145.5212  155.0323 O.2     1  UNL1       -0.2699
      3 N         139.8331  145.5897  156.4810 N.am    1  UNL1       -0.2660
      4 C         141.0425  146.3259  156.9766 C.3     1  UNL1        0.1160
      5 C         141.9887  145.6581  157.9298 C.3     1  UNL1        0.1197
      6 N         141.7256  144.2541  158.3876 N.am    1  UNL1       -0.2555
      7 C         140.5164  143.5179  157.8921 C.2     1  UNL1        0.2497
      8 O         140.2533  142.1138  158.3498 O.2     1  UNL1       -0.2727
      9 C         139.5701  144.1856  156.9388 C.3     1  UNL1        0.1799
     10 C         139.6760  150.4695  154.1546 C.ar    1  UNL1        0.1057
     11 C         140.2494  149.3122  153.3919 C.ar    1  UNL1        0.0185
     12 C         139.9863  147.9081  153.8496 C.ar    1  UNL1        0.0058
     13 C         139.1499  147.6615  155.0701 C.ar    1  UNL1        0.0537
     14 C         138.5766  148.8188  155.8328 C.ar    1  UNL1        0.0058
     15 C         138.8396  150.2228  155.3750 C.ar    1  UNL1        0.0185
     16 C         140.2021  153.2775  153.2391 C.3     1  UNL1        0.1816
     17 S         139.9391  151.8735  153.6969 S.O2    1  UNL1        0.0104
     18 O         141.0634  151.9845  154.6835 O.2     1  UNL1       -0.1686
     19 O         138.8148  151.7625  152.7102 O.2     1  UNL1       -0.1686
     20 C         142.6719  143.5863  159.3408 C.ar    1  UNL1        0.0541
     21 C         143.8487  142.8189  158.8153 C.ar    1  UNL1        0.0180
     22 C         144.7949  142.1512  159.7685 C.ar    1  UNL1        0.0382
     23 C         144.5644  142.2509  161.2474 C.ar    1  UNL1        0.1386
     24 C         143.3876  143.0183  161.7729 C.ar    1  UNL1        0.0382
     25 C         142.4414  143.6860  160.8197 C.ar    1  UNL1        0.0180
     26 O         145.5107  141.5831  162.2006 O.3     1  UNL1       -0.4754
     27 C         145.3922  141.8346  163.6746 C.3     1  UNL1        0.2068
     28 C         144.6620  140.8562  164.5461 C.3     1  UNL1        0.0646
     29 C         144.6725  139.3954  164.2057 C.3     1  UNL1        0.0759
     30 N         143.3870  138.6892  163.8915 N.3     1  UNL1       -0.2726
     31 C         143.0186  138.4007  162.4663 C.3     1  UNL1        0.0721
     32 C         141.7331  137.6946  162.1521 C.3     1  UNL1        0.0174
     33 C         140.8159  137.2768  163.2631 C.3     1  UNL1        0.0029
     34 C         141.1843  137.5652  164.6883 C.3     1  UNL1        0.0174
     35 C         142.4698  138.2714  165.0025 C.3     1  UNL1        0.0721
@<TRIPOS>BOND
     1    16    17    1
     2    17    18    2
     3    17    19    2
     4    17    10    1
     5    10    11   ar
     6    11    12   ar
     7    12    13   ar
     8    13     1    1
     9     1     2    2
    10     1     3   am
    11     3     4    1
    12     4     5    1
    13     5     6    1
    14     6    20    1
    15    20    21   ar
    16    21    22   ar
    17    22    23   ar
    18    23    26    1
    19    26    27    1
    20    27    28    1
    21    28    29    1
    22    29    30    1
    23    30    31    1
    24    31    32    1
    25    32    33    1
    26    33    34    1
    27    34    35    1
    28    23    24   ar
    29    24    25   ar
    30     6     7   am
    31     7     8    2
    32     7     9    1
    33    13    14   ar
    34    14    15   ar
    35    15    10   ar
    36     9     3    1
    37    25    20   ar
    38    35    30    1
@<TRIPOS>MOLECULE
*****
 35 38 0 0 0
SMALL
GASTEIGER

@<TRIPOS>ATOM
      1 C         142.8173  139.0009  157.1485 C.2     1  UNL1        0.2494
      2 O         142.9479  140.3063  156.4213 O.2     1  UNL1       -0.2699
      3 N         142.9007  138.9649  158.6457 N.am    1  UNL1       -0.2660
      4 C         142.7701  137.6594  159.3730 C.3     1  UNL1        0.1160
      5 C         142.8535  137.6234  160.8702 C.3     1  UNL1        0.1197
      6 N         143.0675  138.8927  161.6402 N.am    1  UNL1       -0.2555
      7 C         143.1982  140.1981  160.9130 C.2     1  UNL1        0.2497
      8 O         143.4122  141.4675  161.6830 O.2     1  UNL1       -0.2727
      9 C         143.1147  140.2342  159.4157 C.3     1  UNL1        0.1799
     10 C         142.1752  135.1929  154.8384 C.ar    1  UNL1        0.1057
     11 C         143.5674  135.6503  155.1583 C.ar    1  UNL1        0.0185
     12 C         143.7814  136.9197  155.9283 C.ar    1  UNL1        0.0058
     13 C         142.6033  137.7316  156.3785 C.ar    1  UNL1        0.0537
     14 C         141.2110  137.2741  156.0586 C.ar    1  UNL1        0.0058
     15 C         140.9970  136.0047  155.2885 C.ar    1  UNL1        0.0185
     16 C         141.7471  132.6542  153.2984 C.3     1  UNL1        0.1816
     17 S         141.9611  133.9235  154.0684 S.O2    1  UNL1        0.0104
     18 O         142.0559  133.1354  155.3412 O.2     1  UNL1       -0.1686
     19 O         141.8664  134.7116  152.7956 O.2     1  UNL1       -0.1686
     20 C         143.1509  138.8567  163.1375 C.ar    1  UNL1        0.0541
     21 C         141.9161  138.6072  163.9517 C.ar    1  UNL1        0.0180
     22 C         141.9995  138.5712  165.4489 C.ar    1  UNL1        0.0382
     23 C         143.3178  138.7845  166.1319 C.ar    1  UNL1        0.1386
     24 C         144.5527  139.0339  165.3178 C.ar    1  UNL1        0.0382
     25 C         144.4692  139.0700  163.8206 C.ar    1  UNL1        0.0180
     26 O         143.4013  138.7484  167.6292 O.3     1  UNL1       -0.4754
     27 C         142.4065  139.5097  168.4544 C.3     1  UNL1        0.2068
     28 C         142.8602  140.6599  169.3034 C.3     1  UNL1        0.0646
     29 C         142.8987  142.0457  168.7305 C.3     1  UNL1        0.0759
     30 N         142.3821  142.2992  167.3453 N.3     1  UNL1       -0.2726
     31 C         140.9099  142.4701  167.1134 C.3     1  UNL1        0.0721
     32 C         140.3933  142.7235  165.7282 C.3     1  UNL1        0.0174
     33 C         141.3488  142.8062  164.5748 C.3     1  UNL1        0.0029
     34 C         142.8208  142.6354  164.8067 C.3     1  UNL1        0.0174
     35 C         143.3375  142.3819  166.1919 C.3     1  UNL1        0.0721
@<TRIPOS>BOND
     1    16    17    1
     2    17    18    2
     3    17    19    2
     4    17    10    1
     5    10    11   ar
     6    11    12   ar
     7    12    13   ar
     8    13     1    1
     9     1     2    2
    10     1     3   am
    11     3     4    1
    12     4     5    1
    13     5     6    1
    14     6    20    1
    15    20    21   ar
    16    21    22   ar
    17    22    23   ar
    18    23    26    1
    19    26    27    1
    20    27    28    1
    21    28    29    1
    22    29    30    1
    23    30    31    1
    24    31    32    1
    25    32    33    1
    26    33    34    1
    27    34    35    1
    28    23    24   ar
    29    24    25   ar
    30     6     7   am
    31     7     8    2
    32     7     9    1
    33    13    14   ar
    34    14    15   ar
    35    15    10   ar
    36     9     3    1
    37    25    20   ar
    38    35    30    1
@<TRIPOS>MOLECULE
*****
 35 38 0 0 0
SMALL
GASTEIGER

@<TRIPOS>ATOM
      1 C         139.1066  139.7210  166.0468 C.2     1  UNL1        0.2494
      2 O         137.7649  139.1915  166.4585 O.2     1  UNL1       -0.2699
      3 N         139.6091  139.4883  164.6528 N.am    1  UNL1       -0.2660
      4 C         140.9509  140.0178  164.2411 C.3     1  UNL1        0.1160
      5 C         141.4534  139.7851  162.8471 C.3     1  UNL1        0.1197
      6 N         140.6142  139.0229  161.8648 N.am    1  UNL1       -0.2555
      7 C         139.2726  138.4934  162.2764 C.2     1  UNL1        0.2497
      8 O         138.4335  137.7312  161.2941 O.2     1  UNL1       -0.2727
      9 C         138.7700  138.7261  163.6705 C.3     1  UNL1        0.1799
     10 C         141.6240  142.0076  168.9937 C.ar    1  UNL1        0.1057
     11 C         141.5047  140.5167  169.1072 C.ar    1  UNL1        0.0185
     12 C         140.6655  139.7545  168.1249 C.ar    1  UNL1        0.0058
     13 C         139.9457  140.4832  167.0291 C.ar    1  UNL1        0.0537
     14 C         140.0651  141.9741  166.9156 C.ar    1  UNL1        0.0058
     15 C         140.9042  142.7363  167.8979 C.ar    1  UNL1        0.0185
     16 C         143.3023  143.5319  170.9583 C.3     1  UNL1        0.1816
     17 S         142.4631  142.7697  169.9760 S.O2    1  UNL1        0.0104
     18 O         141.3302  142.7503  170.9589 O.2     1  UNL1       -0.1686
     19 O         143.5961  142.7892  168.9932 O.2     1  UNL1       -0.1686
     20 C         141.1168  138.7902  160.4707 C.ar    1  UNL1        0.0541
     21 C         142.3189  137.9227  160.2418 C.ar    1  UNL1        0.0180
     22 C         142.8214  137.6901  158.8478 C.ar    1  UNL1        0.0382
     23 C         142.1219  138.3250  157.6827 C.ar    1  UNL1        0.1386
     24 C         140.9199  139.1925  157.9115 C.ar    1  UNL1        0.0382
     25 C         140.4173  139.4251  159.3055 C.ar    1  UNL1        0.0180
     26 O         142.6245  138.0923  156.2886 O.3     1  UNL1       -0.4754
     27 C         141.9168  137.1237  155.3881 C.3     1  UNL1        0.2068
     28 C         142.4929  135.7586  155.1546 C.3     1  UNL1        0.0646
     29 C         141.8771  134.5614  155.8163 C.3     1  UNL1        0.0759
     30 N         142.7537  133.5059  156.4226 N.3     1  UNL1       -0.2726
     31 C         143.9123  133.9004  157.2899 C.3     1  UNL1        0.0721
     32 C         144.7888  132.8449  157.8961 C.3     1  UNL1        0.0174
     33 C         144.5068  131.3949  157.6351 C.3     1  UNL1        0.0029
     34 C         143.3483  131.0005  156.7678 C.3     1  UNL1        0.0174
     35 C         142.4717  132.0560  156.1615 C.3     1  UNL1        0.0721
@<TRIPOS>BOND
     1    16    17    1
     2    17    18    2
     3    17    19    2
     4    17    10    1
     5    10    11   ar
     6    11    12   ar
     7    12    13   ar
     8    13     1    1
     9     1     2    2
    10     1     3   am
    11     3     4    1
    12     4     5    1
    13     5     6    1
    14     6    20    1
    15    20    21   ar
    16    21    22   ar
    17    22    23   ar
    18    23    26    1
    19    26    27    1
    20    27    28    1
    21    28    29    1
    22    29    30    1
    23    30    31    1
    24    31    32    1
    25    32    33    1
    26    33    34    1
    27    34    35    1
    28    23    24   ar
    29    24    25   ar
    30     6     7   am
    31     7     8    2
    32     7     9    1
    33    13    14   ar
    34    14    15   ar
    35    15    10   ar
    36     9     3    1
    37    25    20   ar
    38    35    30    1
@<TRIPOS>MOLECULE
*****
 35 38 0 0 0
SMALL
GASTEIGER

@<TRIPOS>ATOM
      1 C         143.3249  138.1155  156.0762 C.2     1  UNL1        0.2494
      2 O         143.8609  138.9094  154.9220 O.2     1  UNL1       -0.2699
      3 N         143.1813  138.7562  157.4248 N.am    1  UNL1       -0.2660
      4 C         142.6453  137.9623  158.5792 C.3     1  UNL1        0.1160
      5 C         142.5017  138.6031  159.9278 C.3     1  UNL1        0.1197
      6 N         142.8940  140.0378  160.1221 N.am    1  UNL1       -0.2555
      7 C         143.4300  140.8317  158.9678 C.2     1  UNL1        0.2497
      8 O         143.8223  142.2664  159.1621 O.2     1  UNL1       -0.2727
      9 C         143.5736  140.1909  157.6191 C.3     1  UNL1        0.1799
     10 C         142.1479  133.8114  155.4933 C.ar    1  UNL1        0.1057
     11 C         141.1306  134.8984  155.3110 C.ar    1  UNL1        0.0185
     12 C         141.5229  136.3331  155.5053 C.ar    1  UNL1        0.0058
     13 C         142.9326  136.6808  155.8819 C.ar    1  UNL1        0.0537
     14 C         143.9500  135.5937  156.0642 C.ar    1  UNL1        0.0058
     15 C         143.5576  134.1590  155.8699 C.ar    1  UNL1        0.0185
     16 C         141.3633  130.9420  155.1047 C.3     1  UNL1        0.1816
     17 S         141.7556  132.3767  155.2990 S.O2    1  UNL1        0.0104
     18 O         141.1708  132.7179  153.9605 O.2     1  UNL1       -0.1686
     19 O         142.3404  132.0355  156.6375 O.2     1  UNL1       -0.1686
     20 C         142.7503  140.6786  161.4708 C.ar    1  UNL1        0.0541
     21 C         143.9510  140.8430  162.3547 C.ar    1  UNL1        0.0180
     22 C         143.8073  141.4837  163.7033 C.ar    1  UNL1        0.0382
     23 C         142.4629  141.9600  164.1680 C.ar    1  UNL1        0.1386
     24 C         141.2623  141.7956  163.2840 C.ar    1  UNL1        0.0382
     25 C         141.4060  141.1549  161.9354 C.ar    1  UNL1        0.0180
     26 O         142.3193  142.6008  165.5166 O.3     1  UNL1       -0.4754
     27 C         143.1891  142.1560  166.6548 C.3     1  UNL1        0.2068
     28 C         142.5946  141.3859  167.7965 C.3     1  UNL1        0.0646
     29 C         142.4094  139.9015  167.6842 C.3     1  UNL1        0.0759
     30 N         141.7534  139.3174  166.4684 N.3     1  UNL1       -0.2726
     31 C         140.2850  139.5198  166.2382 C.3     1  UNL1        0.0721
     32 C         139.6289  138.9356  165.0223 C.3     1  UNL1        0.0174
     33 C         140.4412  138.1491  164.0367 C.3     1  UNL1        0.0029
     34 C         141.9095  137.9466  164.2668 C.3     1  UNL1        0.0174
     35 C         142.5656  138.5308  165.4827 C.3     1  UNL1        0.0721
@<TRIPOS>BOND
     1    16    17    1
     2    17    18    2
     3    17    19    2
     4    17    10    1
     5    10    11   ar
     6    11    12   ar
     7    12    13   ar
     8    13     1    1
     9     1     2    2
    10     1     3   am
    11     3     4    1
    12     4     5    1
    13     5     6    1
    14     6    20    1
    15    20    21   ar
    16    21    22   ar
    17    22    23   ar
    18    23    26    1
    19    26    27    1
    20    27    28    1
    21    28    29    1
    22    29    30    1
    23    30    31    1
    24    31    32    1
    25    32    33    1
    26    33    34    1
    27    34    35    1
    28    23    24   ar
    29    24    25   ar
    30     6     7   am
    31     7     8    2
    32     7     9    1
    33    13    14   ar
    34    14    15   ar
    35    15    10   ar
    36     9     3    1
    37    25    20   ar
    38    35    30    1
