@<TRIPOS>MOLECULE
*****
 38 42 0 0 0
SMALL
GASTEIGER

@<TRIPOS>ATOM
      1 C         141.2769  141.3752  169.9964 C.2     1  UNL1        0.4050
      2 O         142.7232  141.7604  170.0964 O.2     1  UNL1       -0.2262
      3 N         140.7814  140.6269  168.7945 N.am    1  UNL1       -0.2455
      4 C         139.3706  140.1768  168.5560 C.3     1  UNL1        0.0973
      5 C         139.3270  139.4691  167.2342 C.3     1  UNL1        0.0311
      6 C         138.4281  138.7535  166.2698 C.3     1  UNL1        0.0180
      7 C         139.2565  138.3240  165.0954 C.3     1  UNL1        0.0546
      8 C         140.6673  138.7742  165.3339 C.3     1  UNL1        0.0261
      9 C         140.7109  139.4819  166.6557 C.3     1  UNL1        0.0903
     10 C         141.6098  140.1975  167.6200 C.3     1  UNL1        0.1053
     11 C         142.0948  139.4946  166.0772 C.2     1  UNL1        0.2267
     12 O         143.0974  138.4656  166.5084 O.2     1  UNL1       -0.2748
     13 N         142.4761  140.5364  165.0676 N.am    1  UNL1       -0.2750
     14 C         143.8600  140.5492  164.4891 C.3     1  UNL1        0.1000
     15 C         144.2413  141.5910  163.4795 C.3     1  UNL1        0.0670
     16 C         143.2386  142.6200  163.0484 C.ar    1  UNL1        0.0583
     17 N         143.6199  143.6618  162.0388 N.ar    1  UNL1       -0.2484
     18 C         142.6173  144.6908  161.6077 C.ar    1  UNL1        0.1023
     19 C         141.2334  144.6780  162.1862 C.ar    1  UNL1        0.0902
     20 C         140.8521  143.6362  163.1958 C.ar    1  UNL1        0.0040
     21 C         141.8547  142.6072  163.6269 C.ar    1  UNL1        0.0113
     22 C         141.4735  141.5654  164.6365 C.3     1  UNL1        0.1213
     23 C         140.2307  145.7070  161.7551 C.3     1  UNL1        0.4200
     24 F         139.2281  146.7360  161.3240 F       1  UNL1       -0.1658
     25 F         140.8979  145.7954  160.4145 F       1  UNL1       -0.1658
     26 F         139.5636  145.6186  163.0956 F       1  UNL1       -0.1658
     27 C         139.4882  142.9775  170.9879 C.3     1  UNL1        0.2573
     28 O         140.3262  141.7383  171.0983 O.3     1  UNL1       -0.4304
     29 N         138.7610  137.5757  163.8934 N.3     1  UNL1       -0.2975
     30 H         137.7808  137.3541  164.0680 H       1  UNL1        0.1232
     31 C         138.8264  138.2099  162.5357 C.3     1  UNL1        0.0865
     32 C         137.6605  139.0007  162.0203 C.3     1  UNL1        0.0503
     33 C         137.7260  139.6348  160.6625 C.3     1  UNL1        0.1437
     34 O         138.9572  139.4783  159.8201 O.3     1  UNL1       -0.3511
     35 C         140.1230  138.6875  160.3355 C.3     1  UNL1        0.1729
     36 C         140.0576  138.0533  161.6933 C.3     1  UNL1        0.1591
     37 O         141.2234  137.2626  162.2087 O.3     1  UNL1       -0.3496
     38 C         142.5903  137.8793  162.2458 C.3     1  UNL1        0.1742
@<TRIPOS>BOND
     1    27    28    1
     2    28     1    1
     3     1     2    2
     4     1     3   am
     5     3     4    1
     6     5     4    1
     7     5     6    1
     8     6     7    1
     9     7    29    1
    10    29    31    1
    11    31    32    1
    12    32    33    1
    13    33    34    1
    14    34    35    1
    15    35    36    1
    16    36    37    1
    17    37    38    1
    18     7     8    1
    19     8     9    1
    20     9    11    1
    21    11    12    2
    22    11    13   am
    23    13    14    1
    24    14    15    1
    25    15    16    1
    26    16    17   ar
    27    17    18   ar
    28    18    19   ar
    29    19    23    1
    30    23    24    1
    31    23    25    1
    32    23    26    1
    33    19    20   ar
    34    20    21   ar
    35    21    22    1
    36     9    10    1
    37    10     3    1
    38     9     5    1
    39    22    13    1
    40    36    31    1
    41    21    16   ar
    42    29    30    1
@<TRIPOS>MOLECULE
*****
 38 42 0 0 0
SMALL
GASTEIGER

@<TRIPOS>ATOM
      1 C         141.3159  141.7981  170.6575 C.2     1  UNL1        0.4050
      2 O         142.7635  142.1737  170.7730 O.2     1  UNL1       -0.2262
      3 N         140.8295  141.0480  169.4529 N.am    1  UNL1       -0.2455
      4 C         139.4185  140.6065  169.1996 C.3     1  UNL1        0.0973
      5 C         139.3856  139.8934  167.8805 C.3     1  UNL1        0.0311
      6 C         138.4933  139.1798  166.9086 C.3     1  UNL1        0.0180
      7 C         139.3325  138.7394  165.7459 C.3     1  UNL1        0.0546
      8 C         140.7435  139.1809  165.9992 C.3     1  UNL1        0.0261
      9 C         140.7764  139.8941  167.3184 C.3     1  UNL1        0.0903
     10 C         141.6687  140.6076  168.2903 C.3     1  UNL1        0.1053
     11 C         142.1671  139.8947  166.7564 C.2     1  UNL1        0.2267
     12 O         143.1893  138.9315  167.2829 O.2     1  UNL1       -0.2748
     13 N         142.5356  140.8587  165.6678 N.am    1  UNL1       -0.2750
     14 C         143.9263  140.8594  165.1057 C.3     1  UNL1        0.1000
     15 C         144.2948  141.8233  164.0172 C.3     1  UNL1        0.0670
     16 C         143.2726  142.7866  163.4906 C.ar    1  UNL1        0.0583
     17 N         143.6411  143.7505  162.4020 N.ar    1  UNL1       -0.2484
     18 C         142.6189  144.7138  161.8755 C.ar    1  UNL1        0.1023
     19 C         141.2282  144.7131  162.4376 C.ar    1  UNL1        0.0902
     20 C         140.8597  143.7491  163.5262 C.ar    1  UNL1        0.0040
     21 C         141.8819  142.7859  164.0527 C.ar    1  UNL1        0.0113
     22 C         141.5134  141.8220  165.1412 C.3     1  UNL1        0.1213
     23 C         140.2060  145.6763  161.9111 C.3     1  UNL1        0.4200
     24 F         139.1838  146.6396  161.3846 F       1  UNL1       -0.1658
     25 F         140.9932  145.8181  160.6422 F       1  UNL1       -0.1658
     26 F         139.4187  145.5345  163.1800 F       1  UNL1       -0.1658
     27 C         139.2450  143.1422  171.4665 C.3     1  UNL1        0.2573
     28 O         140.3547  142.1725  171.7464 O.3     1  UNL1       -0.4304
     29 N         138.8461  137.9893  164.5414 N.3     1  UNL1       -0.2975
     30 H         137.8278  138.0479  164.5494 H       1  UNL1        0.1232
     31 C         139.2928  138.4018  163.1702 C.3     1  UNL1        0.0865
     32 C         140.4130  137.6683  162.4940 C.3     1  UNL1        0.0503
     33 C         140.8597  138.0809  161.1227 C.3     1  UNL1        0.1437
     34 O         140.1861  139.2269  160.4277 O.3     1  UNL1       -0.3511
     35 C         139.0660  139.9603  161.1039 C.3     1  UNL1        0.1729
     36 C         138.6193  139.5478  162.4751 C.3     1  UNL1        0.1591
     37 O         137.4991  140.2813  163.1513 O.3     1  UNL1       -0.3496
     38 C         137.7182  141.6717  163.6697 C.3     1  UNL1        0.1742
@<TRIPOS>BOND
     1    27    28    1
     2    28     1    1
     3     1     2    2
     4     1     3   am
     5     3     4    1
     6     5     4    1
     7     5     6    1
     8     6     7    1
     9     7    29    1
    10    29    31    1
    11    31    32    1
    12    32    33    1
    13    33    34    1
    14    34    35    1
    15    35    36    1
    16    36    37    1
    17    37    38    1
    18     7     8    1
    19     8     9    1
    20     9    11    1
    21    11    12    2
    22    11    13   am
    23    13    14    1
    24    14    15    1
    25    15    16    1
    26    16    17   ar
    27    17    18   ar
    28    18    19   ar
    29    19    23    1
    30    23    24    1
    31    23    25    1
    32    23    26    1
    33    19    20   ar
    34    20    21   ar
    35    21    22    1
    36     9    10    1
    37    10     3    1
    38     9     5    1
    39    22    13    1
    40    36    31    1
    41    21    16   ar
    42    29    30    1
@<TRIPOS>MOLECULE
*****
 38 42 0 0 0
SMALL
GASTEIGER

@<TRIPOS>ATOM
      1 C         142.2557  137.4923  156.8046 C.2     1  UNL1        0.4050
      2 O         143.6712  137.8189  156.4308 O.2     1  UNL1       -0.2262
      3 N         141.4079  138.5169  157.4986 N.am    1  UNL1       -0.2455
      4 C         139.9832  138.3355  157.9316 C.3     1  UNL1        0.0973
      5 C         139.5306  139.6091  158.5821 C.3     1  UNL1        0.0311
      6 C         138.3705  140.2841  159.2517 C.3     1  UNL1        0.0180
      7 C         138.7984  141.6699  159.6345 C.3     1  UNL1        0.0546
      8 C         140.2231  141.8513  159.2015 C.3     1  UNL1        0.0261
      9 C         140.6757  140.5777  158.5511 C.3     1  UNL1        0.0903
     10 C         141.8358  139.9026  157.8815 C.3     1  UNL1        0.1053
     11 C         141.8206  141.5462  158.5201 C.2     1  UNL1        0.2267
     12 O         141.9813  142.4806  157.3577 O.2     1  UNL1       -0.2748
     13 N         142.8049  141.5803  159.6515 N.am    1  UNL1       -0.2750
     14 C         143.9499  142.5489  159.6205 C.3     1  UNL1        0.1000
     15 C         144.9341  142.5830  160.7518 C.3     1  UNL1        0.0670
     16 C         144.7735  141.6486  161.9142 C.ar    1  UNL1        0.0583
     17 N         145.7578  141.6827  163.0456 N.ar    1  UNL1       -0.2484
     18 C         145.5972  140.7483  164.2079 C.ar    1  UNL1        0.1023
     19 C         144.4521  139.7797  164.2389 C.ar    1  UNL1        0.0902
     20 C         143.4679  139.7456  163.1075 C.ar    1  UNL1        0.0040
     21 C         143.6285  140.6800  161.9452 C.ar    1  UNL1        0.0113
     22 C         142.6443  140.6459  160.8138 C.3     1  UNL1        0.1213
     23 C         144.2915  138.8453  165.4012 C.3     1  UNL1        0.4200
     24 F         144.1308  137.9109  166.5635 F       1  UNL1       -0.1658
     25 F         145.7672  138.5770  165.3895 F       1  UNL1       -0.1658
     26 F         142.8157  139.1136  165.4129 F       1  UNL1       -0.1658
     27 C         142.5814  134.9365  156.4710 C.3     1  UNL1        0.2573
     28 O         141.6880  136.1413  156.4845 O.3     1  UNL1       -0.4304
     29 N         137.9506  142.6944  160.3285 N.3     1  UNL1       -0.2975
     30 H         136.9790  142.4201  160.1830 H       1  UNL1        0.1232
     31 C         138.1173  142.9337  161.7999 C.3     1  UNL1        0.0865
     32 C         137.6197  141.9187  162.7859 C.3     1  UNL1        0.0503
     33 C         137.7863  142.1580  164.2573 C.3     1  UNL1        0.1437
     34 O         138.4506  143.4123  164.7426 O.3     1  UNL1       -0.3511
     35 C         138.9481  144.4273  163.7566 C.3     1  UNL1        0.1729
     36 C         138.7815  144.1880  162.2852 C.3     1  UNL1        0.1591
     37 O         139.2790  145.2029  161.2992 O.3     1  UNL1       -0.3496
     38 C         140.7029  145.1572  160.8297 C.3     1  UNL1        0.1742
@<TRIPOS>BOND
     1    27    28    1
     2    28     1    1
     3     1     2    2
     4     1     3   am
     5     3     4    1
     6     5     4    1
     7     5     6    1
     8     6     7    1
     9     7    29    1
    10    29    31    1
    11    31    32    1
    12    32    33    1
    13    33    34    1
    14    34    35    1
    15    35    36    1
    16    36    37    1
    17    37    38    1
    18     7     8    1
    19     8     9    1
    20     9    11    1
    21    11    12    2
    22    11    13   am
    23    13    14    1
    24    14    15    1
    25    15    16    1
    26    16    17   ar
    27    17    18   ar
    28    18    19   ar
    29    19    23    1
    30    23    24    1
    31    23    25    1
    32    23    26    1
    33    19    20   ar
    34    20    21   ar
    35    21    22    1
    36     9    10    1
    37    10     3    1
    38     9     5    1
    39    22    13    1
    40    36    31    1
    41    21    16   ar
    42    29    30    1
@<TRIPOS>MOLECULE
*****
 38 42 0 0 0
SMALL
GASTEIGER

@<TRIPOS>ATOM
      1 C         141.8424  137.4506  157.2220 C.2     1  UNL1        0.4050
      2 O         143.2944  137.2669  157.5505 O.2     1  UNL1       -0.2262
      3 N         141.0522  138.5334  157.8953 N.am    1  UNL1       -0.2455
      4 C         139.6004  138.8356  157.6697 C.3     1  UNL1        0.0973
      5 C         139.2260  139.9930  158.5473 C.3     1  UNL1        0.0311
      6 C         138.0974  140.8952  158.9503 C.3     1  UNL1        0.0180
      7 C         138.6204  141.8657  159.9674 C.3     1  UNL1        0.0546
      8 C         140.0722  141.5635  160.1930 C.3     1  UNL1        0.0261
      9 C         140.4465  140.4061  159.3154 C.3     1  UNL1        0.0903
     10 C         141.5751  139.5040  158.9124 C.3     1  UNL1        0.1053
     11 C         141.6670  140.8191  160.0834 C.2     1  UNL1        0.2267
     12 O         142.8455  141.4025  159.3617 O.2     1  UNL1       -0.2748
     13 N         141.7089  140.6489  161.5732 N.am    1  UNL1       -0.2750
     14 C         142.9293  141.0620  162.3412 C.3     1  UNL1        0.1000
     15 C         142.9712  140.8917  163.8309 C.3     1  UNL1        0.0670
     16 C         141.7927  140.3084  164.5525 C.ar    1  UNL1        0.0583
     17 N         141.8346  140.1381  166.0423 N.ar    1  UNL1       -0.2484
     18 C         140.6561  139.5548  166.7640 C.ar    1  UNL1        0.1023
     19 C         139.4356  139.1417  165.9959 C.ar    1  UNL1        0.0902
     20 C         139.3937  139.3120  164.5062 C.ar    1  UNL1        0.0040
     21 C         140.5723  139.8953  163.7845 C.ar    1  UNL1        0.0113
     22 C         140.5304  140.0656  162.2948 C.3     1  UNL1        0.1213
     23 C         138.2571  138.5584  166.7175 C.3     1  UNL1        0.4200
     24 F         137.0786  137.9750  167.4392 F       1  UNL1       -0.1658
     25 F         138.1002  137.5339  165.6332 F       1  UNL1       -0.1658
     26 F         138.4140  139.5829  167.8019 F       1  UNL1       -0.1658
     27 C         141.8123  135.2407  155.8563 C.3     1  UNL1        0.2573
     28 O         141.1805  136.5515  156.2202 O.3     1  UNL1       -0.4304
     29 N         137.8302  142.9485  160.6407 N.3     1  UNL1       -0.2975
     30 H         136.8461  142.6987  160.5436 H       1  UNL1        0.1232
     31 C         138.0588  143.2520  162.0918 C.3     1  UNL1        0.0865
     32 C         137.5548  142.3088  163.1437 C.3     1  UNL1        0.0503
     33 C         137.7834  142.6122  164.5948 C.3     1  UNL1        0.1437
     34 O         138.5159  143.8589  164.9940 O.3     1  UNL1       -0.3511
     35 C         139.0199  144.8020  163.9422 C.3     1  UNL1        0.1729
     36 C         138.7913  144.4986  162.4911 C.3     1  UNL1        0.1591
     37 O         139.2952  145.4417  161.4392 O.3     1  UNL1       -0.3496
     38 C         140.6609  145.2475  160.8498 C.3     1  UNL1        0.1742
@<TRIPOS>BOND
     1    27    28    1
     2    28     1    1
     3     1     2    2
     4     1     3   am
     5     3     4    1
     6     5     4    1
     7     5     6    1
     8     6     7    1
     9     7    29    1
    10    29    31    1
    11    31    32    1
    12    32    33    1
    13    33    34    1
    14    34    35    1
    15    35    36    1
    16    36    37    1
    17    37    38    1
    18     7     8    1
    19     8     9    1
    20     9    11    1
    21    11    12    2
    22    11    13   am
    23    13    14    1
    24    14    15    1
    25    15    16    1
    26    16    17   ar
    27    17    18   ar
    28    18    19   ar
    29    19    23    1
    30    23    24    1
    31    23    25    1
    32    23    26    1
    33    19    20   ar
    34    20    21   ar
    35    21    22    1
    36     9    10    1
    37    10     3    1
    38     9     5    1
    39    22    13    1
    40    36    31    1
    41    21    16   ar
    42    29    30    1
@<TRIPOS>MOLECULE
*****
 38 42 0 0 0
SMALL
GASTEIGER

@<TRIPOS>ATOM
      1 C         137.7080  140.9093  156.9046 C.2     1  UNL1        0.4050
      2 O         137.9980  139.4992  156.4833 O.2     1  UNL1       -0.2262
      3 N         138.6863  141.6508  157.7667 N.am    1  UNL1       -0.2455
      4 C         138.5334  143.0576  158.2643 C.3     1  UNL1        0.0973
      5 C         139.7418  143.3919  159.0877 C.3     1  UNL1        0.0311
      6 C         140.3942  144.4680  159.9040 C.3     1  UNL1        0.0180
      7 C         141.6971  143.9329  160.4198 C.3     1  UNL1        0.0546
      8 C         141.8500  142.5261  159.9222 C.3     1  UNL1        0.0261
      9 C         140.6416  142.1917  159.0989 C.3     1  UNL1        0.0903
     10 C         139.9892  141.1157  158.2825 C.3     1  UNL1        0.1053
     11 C         141.5413  140.9916  159.1102 C.2     1  UNL1        0.2267
     12 O         142.5297  140.7848  158.0009 O.2     1  UNL1       -0.2748
     13 N         141.4527  139.9983  160.2307 N.am    1  UNL1       -0.2750
     14 C         142.3525  138.7982  160.2419 C.3     1  UNL1        0.1000
     15 C         142.2639  137.8049  161.3624 C.3     1  UNL1        0.0670
     16 C         141.2755  138.0118  162.4717 C.ar    1  UNL1        0.0583
     17 N         141.1870  137.0185  163.5922 N.ar    1  UNL1       -0.2484
     18 C         140.1986  137.2253  164.7014 C.ar    1  UNL1        0.1023
     19 C         139.2989  138.4255  164.6901 C.ar    1  UNL1        0.0902
     20 C         139.3875  139.4187  163.5696 C.ar    1  UNL1        0.0040
     21 C         140.3758  139.2119  162.4604 C.ar    1  UNL1        0.0113
     22 C         140.4644  140.2051  161.3399 C.3     1  UNL1        0.1213
     23 C         138.3105  138.6323  165.7994 C.3     1  UNL1        0.4200
     24 F         137.3222  138.8392  166.9086 F       1  UNL1       -0.1658
     25 F         138.3613  140.1136  165.5684 F       1  UNL1       -0.1658
     26 F         138.2597  137.1511  166.0303 F       1  UNL1       -0.1658
     27 C         135.4317  140.8157  155.6558 C.3     1  UNL1        0.2573
     28 O         136.4397  141.5779  156.4639 O.3     1  UNL1       -0.4304
     29 N         142.6755  144.6744  161.2819 N.3     1  UNL1       -0.2975
     30 H         142.1752  145.4706  161.6772 H       1  UNL1        0.1232
     31 C         143.3481  143.9745  162.4255 C.3     1  UNL1        0.0865
     32 C         144.5506  143.1134  162.1749 C.3     1  UNL1        0.0503
     33 C         145.2232  142.4135  163.3185 C.3     1  UNL1        0.1437
     34 O         144.6935  142.5748  164.7126 O.3     1  UNL1       -0.3511
     35 C         143.4911  143.4359  164.9631 C.3     1  UNL1        0.1729
     36 C         142.8185  144.1358  163.8195 C.3     1  UNL1        0.1591
     37 O         141.6161  144.9969  164.0700 O.3     1  UNL1       -0.3496
     38 C         140.2408  144.4012  164.0075 C.3     1  UNL1        0.1742
@<TRIPOS>BOND
     1    27    28    1
     2    28     1    1
     3     1     2    2
     4     1     3   am
     5     3     4    1
     6     5     4    1
     7     5     6    1
     8     6     7    1
     9     7    29    1
    10    29    31    1
    11    31    32    1
    12    32    33    1
    13    33    34    1
    14    34    35    1
    15    35    36    1
    16    36    37    1
    17    37    38    1
    18     7     8    1
    19     8     9    1
    20     9    11    1
    21    11    12    2
    22    11    13   am
    23    13    14    1
    24    14    15    1
    25    15    16    1
    26    16    17   ar
    27    17    18   ar
    28    18    19   ar
    29    19    23    1
    30    23    24    1
    31    23    25    1
    32    23    26    1
    33    19    20   ar
    34    20    21   ar
    35    21    22    1
    36     9    10    1
    37    10     3    1
    38     9     5    1
    39    22    13    1
    40    36    31    1
    41    21    16   ar
    42    29    30    1
@<TRIPOS>MOLECULE
*****
 38 42 0 0 0
SMALL
GASTEIGER

@<TRIPOS>ATOM
      1 C         142.5590  140.4079  169.3138 C.2     1  UNL1        0.4050
      2 O         142.7537  138.9229  169.3967 O.2     1  UNL1       -0.2262
      3 N         141.6546  140.9885  168.2674 N.am    1  UNL1       -0.2455
      4 C         141.3635  142.4458  168.0636 C.3     1  UNL1        0.0973
      5 C         140.4115  142.5717  166.9113 C.3     1  UNL1        0.0311
      6 C         139.6432  143.5501  166.0732 C.3     1  UNL1        0.0180
      7 C         138.8710  142.7753  165.0469 C.3     1  UNL1        0.0546
      8 C         139.1621  141.3180  165.2507 C.3     1  UNL1        0.0261
      9 C         140.1141  141.1921  166.4029 C.3     1  UNL1        0.0903
     10 C         140.8824  140.2137  167.2410 C.3     1  UNL1        0.1053
     11 C         139.8168  139.8126  165.8945 C.2     1  UNL1        0.2267
     12 O         138.9520  138.8873  166.6983 O.2     1  UNL1       -0.2748
     13 N         140.3841  139.3584  164.5823 N.am    1  UNL1       -0.2750
     14 C         140.0868  137.9789  164.0739 C.3     1  UNL1        0.1000
     15 C         140.6541  137.5247  162.7618 C.3     1  UNL1        0.0670
     16 C         141.5188  138.4501  161.9580 C.ar    1  UNL1        0.0583
     17 N         142.0862  137.9958  160.6458 N.ar    1  UNL1       -0.2484
     18 C         142.9509  138.9212  159.8420 C.ar    1  UNL1        0.1023
     19 C         143.2483  140.3007  160.3505 C.ar    1  UNL1        0.0902
     20 C         142.6809  140.7549  161.6626 C.ar    1  UNL1        0.0040
     21 C         141.8162  139.8296  162.4664 C.ar    1  UNL1        0.0113
     22 C         141.2488  140.2837  163.7786 C.3     1  UNL1        0.1213
     23 C         144.1130  141.2261  159.5467 C.3     1  UNL1        0.4200
     24 F         144.9777  142.1514  158.7430 F       1  UNL1       -0.1658
     25 F         144.6244  141.8476  160.8125 F       1  UNL1       -0.1658
     26 F         143.6015  140.6045  158.2810 F       1  UNL1       -0.1658
     27 C         144.1636  142.4010  169.7636 C.3     1  UNL1        0.2573
     28 O         143.2687  141.3123  170.2773 O.3     1  UNL1       -0.4304
     29 N         137.9666  143.3559  164.0005 N.3     1  UNL1       -0.2975
     30 H         137.6807  144.2758  164.3358 H       1  UNL1        0.1232
     31 C         138.4649  143.5419  162.5979 C.3     1  UNL1        0.0865
     32 C         139.3109  144.7320  162.2542 C.3     1  UNL1        0.0503
     33 C         139.8092  144.9180  160.8517 C.3     1  UNL1        0.1437
     34 O         139.4614  143.9140  159.7928 O.3     1  UNL1       -0.3511
     35 C         138.6155  142.7240  160.1366 C.3     1  UNL1        0.1729
     36 C         138.1172  142.5380  161.5391 C.3     1  UNL1        0.1591
     37 O         137.2712  141.3480  161.8829 O.3     1  UNL1       -0.3496
     38 C         137.8764  139.9754  161.8936 C.3     1  UNL1        0.1742
@<TRIPOS>BOND
     1    27    28    1
     2    28     1    1
     3     1     2    2
     4     1     3   am
     5     3     4    1
     6     5     4    1
     7     5     6    1
     8     6     7    1
     9     7    29    1
    10    29    31    1
    11    31    32    1
    12    32    33    1
    13    33    34    1
    14    34    35    1
    15    35    36    1
    16    36    37    1
    17    37    38    1
    18     7     8    1
    19     8     9    1
    20     9    11    1
    21    11    12    2
    22    11    13   am
    23    13    14    1
    24    14    15    1
    25    15    16    1
    26    16    17   ar
    27    17    18   ar
    28    18    19   ar
    29    19    23    1
    30    23    24    1
    31    23    25    1
    32    23    26    1
    33    19    20   ar
    34    20    21   ar
    35    21    22    1
    36     9    10    1
    37    10     3    1
    38     9     5    1
    39    22    13    1
    40    36    31    1
    41    21    16   ar
    42    29    30    1
@<TRIPOS>MOLECULE
*****
 38 42 0 0 0
SMALL
GASTEIGER

@<TRIPOS>ATOM
      1 C         141.5480  141.3931  169.3932 C.2     1  UNL1        0.4050
      2 O         142.3103  142.6589  169.6516 O.2     1  UNL1       -0.2262
      3 N         140.6759  141.2776  168.1782 N.am    1  UNL1       -0.2455
      4 C         139.8585  140.0812  167.7901 C.3     1  UNL1        0.0973
      5 C         139.1455  140.4023  166.5101 C.3     1  UNL1        0.0311
      6 C         138.1997  139.8614  165.4791 C.3     1  UNL1        0.0180
      7 C         137.9920  140.9220  164.4389 C.3     1  UNL1        0.0546
      8 C         138.8094  142.1183  164.8270 C.3     1  UNL1        0.0261
      9 C         139.5223  141.7972  166.1070 C.3     1  UNL1        0.0903
     10 C         140.4681  142.3381  167.1380 C.3     1  UNL1        0.1053
     11 C         139.8991  143.1920  165.7039 C.2     1  UNL1        0.2267
     12 O         139.5376  144.3509  166.5850 O.2     1  UNL1       -0.2748
     13 N         140.6374  143.4281  164.4197 N.am    1  UNL1       -0.2750
     14 C         141.0142  144.8229  164.0166 C.3     1  UNL1        0.1000
     15 C         141.7524  145.0588  162.7324 C.3     1  UNL1        0.0670
     16 C         142.1140  143.9000  161.8513 C.ar    1  UNL1        0.0583
     17 N         142.8523  144.1360  160.5670 N.ar    1  UNL1       -0.2484
     18 C         143.2138  142.9772  159.6859 C.ar    1  UNL1        0.1023
     19 C         142.8371  141.5823  160.0890 C.ar    1  UNL1        0.0902
     20 C         142.0988  141.3463  161.3732 C.ar    1  UNL1        0.0040
     21 C         141.7372  142.5052  162.2544 C.ar    1  UNL1        0.0113
     22 C         140.9990  142.2692  163.5386 C.3     1  UNL1        0.1213
     23 C         143.1986  140.4234  159.2079 C.3     1  UNL1        0.4200
     24 F         143.5601  139.2646  158.3268 F       1  UNL1       -0.1658
     25 F         144.1291  139.9092  160.2661 F       1  UNL1       -0.1658
     26 F         142.2681  140.9377  158.1498 F       1  UNL1       -0.1658
     27 C         142.5836  139.1021  170.0478 C.3     1  UNL1        0.2573
     28 O         141.6577  140.2430  170.3497 O.3     1  UNL1       -0.4304
     29 N         137.1199  140.8065  163.2239 N.3     1  UNL1       -0.2975
     30 H         136.4357  141.5609  163.2797 H       1  UNL1        0.1232
     31 C         137.7286  140.8743  161.8546 C.3     1  UNL1        0.0865
     32 C         138.0491  142.2053  161.2415 C.3     1  UNL1        0.0503
     33 C         138.6578  142.2731  159.8722 C.3     1  UNL1        0.1437
     34 O         138.9460  141.0100  159.1161 O.3     1  UNL1       -0.3511
     35 C         138.6255  139.6792  159.7293 C.3     1  UNL1        0.1729
     36 C         138.0167  139.6113  161.0985 C.3     1  UNL1        0.1591
     37 O         137.6962  138.2804  161.7117 O.3     1  UNL1       -0.3496
     38 C         138.6822  137.6205  162.6295 C.3     1  UNL1        0.1742
@<TRIPOS>BOND
     1    27    28    1
     2    28     1    1
     3     1     2    2
     4     1     3   am
     5     3     4    1
     6     5     4    1
     7     5     6    1
     8     6     7    1
     9     7    29    1
    10    29    31    1
    11    31    32    1
    12    32    33    1
    13    33    34    1
    14    34    35    1
    15    35    36    1
    16    36    37    1
    17    37    38    1
    18     7     8    1
    19     8     9    1
    20     9    11    1
    21    11    12    2
    22    11    13   am
    23    13    14    1
    24    14    15    1
    25    15    16    1
    26    16    17   ar
    27    17    18   ar
    28    18    19   ar
    29    19    23    1
    30    23    24    1
    31    23    25    1
    32    23    26    1
    33    19    20   ar
    34    20    21   ar
    35    21    22    1
    36     9    10    1
    37    10     3    1
    38     9     5    1
    39    22    13    1
    40    36    31    1
    41    21    16   ar
    42    29    30    1
@<TRIPOS>MOLECULE
*****
 38 42 0 0 0
SMALL
GASTEIGER

@<TRIPOS>ATOM
      1 C         140.8738  141.8346  169.3845 C.2     1  UNL1        0.4050
      2 O         140.8145  143.3108  169.6435 O.2     1  UNL1       -0.2262
      3 N         141.6445  141.3097  168.2094 N.am    1  UNL1       -0.2455
      4 C         141.7930  139.8672  167.8256 C.3     1  UNL1        0.0973
      5 C         142.6423  139.8011  166.5909 C.3     1  UNL1        0.0311
      6 C         143.2589  138.8689  165.5906 C.3     1  UNL1        0.0180
      7 C         144.0164  139.6943  164.5932 C.3     1  UNL1        0.0546
      8 C         143.8679  141.1367  164.9770 C.3     1  UNL1        0.0261
      9 C         143.0186  141.2028  166.2117 C.3     1  UNL1        0.0903
     10 C         142.4020  142.1351  167.2120 C.3     1  UNL1        0.1053
     11 C         143.3950  142.6044  165.8325 C.2     1  UNL1        0.2267
     12 O         144.3758  143.3703  166.6700 O.2     1  UNL1       -0.2748
     13 N         142.7907  143.2401  164.6156 N.am    1  UNL1       -0.2750
     14 C         143.1671  144.6417  164.2363 C.3     1  UNL1        0.1000
     15 C         142.5628  145.2773  163.0195 C.3     1  UNL1        0.0670
     16 C         141.5821  144.5114  162.1819 C.ar    1  UNL1        0.0583
     17 N         140.9777  145.1471  160.9651 N.ar    1  UNL1       -0.2484
     18 C         139.9970  144.3812  160.1275 C.ar    1  UNL1        0.1023
     19 C         139.6206  142.9795  160.5068 C.ar    1  UNL1        0.0902
     20 C         140.2249  142.3439  161.7236 C.ar    1  UNL1        0.0040
     21 C         141.2057  143.1098  162.5612 C.ar    1  UNL1        0.0113
     22 C         141.8100  142.4742  163.7780 C.3     1  UNL1        0.1213
     23 C         138.6399  142.2136  159.6692 C.3     1  UNL1        0.4200
     24 F         137.6592  141.4477  158.8316 F       1  UNL1       -0.1658
     25 F         139.4048  142.5854  158.4336 F       1  UNL1       -0.1658
     26 F         137.8750  141.8418  160.9048 F       1  UNL1       -0.1658
     27 C         138.8251  140.3265  169.9116 C.3     1  UNL1        0.2573
     28 O         140.1626  140.8832  170.3003 O.3     1  UNL1       -0.4304
     29 N         144.7871  139.1694  163.4182 N.3     1  UNL1       -0.2975
     30 H         145.0859  138.2247  163.6603 H       1  UNL1        0.1232
     31 C         144.1343  139.0850  162.0703 C.3     1  UNL1        0.0865
     32 C         143.2610  137.9132  161.7319 C.3     1  UNL1        0.0503
     33 C         142.6083  137.8289  160.3840 C.3     1  UNL1        0.1437
     34 O         142.8288  138.9163  159.3745 O.3     1  UNL1       -0.3511
     35 C         143.7020  140.0880  159.7129 C.3     1  UNL1        0.1729
     36 C         144.3548  140.1723  161.0608 C.3     1  UNL1        0.1591
     37 O         145.2280  141.3440  161.3992 O.3     1  UNL1       -0.3496
     38 C         144.6525  142.7292  161.4125 C.3     1  UNL1        0.1742
@<TRIPOS>BOND
     1    27    28    1
     2    28     1    1
     3     1     2    2
     4     1     3   am
     5     3     4    1
     6     5     4    1
     7     5     6    1
     8     6     7    1
     9     7    29    1
    10    29    31    1
    11    31    32    1
    12    32    33    1
    13    33    34    1
    14    34    35    1
    15    35    36    1
    16    36    37    1
    17    37    38    1
    18     7     8    1
    19     8     9    1
    20     9    11    1
    21    11    12    2
    22    11    13   am
    23    13    14    1
    24    14    15    1
    25    15    16    1
    26    16    17   ar
    27    17    18   ar
    28    18    19   ar
    29    19    23    1
    30    23    24    1
    31    23    25    1
    32    23    26    1
    33    19    20   ar
    34    20    21   ar
    35    21    22    1
    36     9    10    1
    37    10     3    1
    38     9     5    1
    39    22    13    1
    40    36    31    1
    41    21    16   ar
    42    29    30    1
@<TRIPOS>MOLECULE
*****
 38 42 0 0 0
SMALL
GASTEIGER

@<TRIPOS>ATOM
      1 C         142.2683  135.4305  156.2813 C.2     1  UNL1        0.4050
      2 O         143.6477  134.9904  156.6733 O.2     1  UNL1       -0.2262
      3 N         141.7107  136.7159  156.8169 N.am    1  UNL1       -0.2455
      4 C         140.3548  137.2823  156.5153 C.3     1  UNL1        0.0973
      5 C         140.2171  138.5770  157.2600 C.3     1  UNL1        0.0311
      6 C         139.2941  139.7272  157.5340 C.3     1  UNL1        0.0180
      7 C         139.9944  140.6720  158.4651 C.3     1  UNL1        0.0546
      8 C         141.3503  140.1057  158.7666 C.3     1  UNL1        0.0261
      9 C         141.4880  138.8109  158.0219 C.3     1  UNL1        0.0903
     10 C         142.4110  137.6607  157.7480 C.3     1  UNL1        0.1053
     11 C         142.7587  139.0448  158.7837 C.2     1  UNL1        0.2267
     12 O         144.0420  139.2866  158.0457 O.2     1  UNL1       -0.2748
     13 N         142.7462  139.0369  160.2837 N.am    1  UNL1       -0.2750
     14 C         144.0170  139.2709  161.0455 C.3     1  UNL1        0.1000
     15 C         144.0045  139.2630  162.5454 C.3     1  UNL1        0.0670
     16 C         142.7212  139.0212  163.2835 C.ar    1  UNL1        0.0583
     17 N         142.7087  139.0133  164.7835 N.ar    1  UNL1       -0.2484
     18 C         141.4254  138.7716  165.5215 C.ar    1  UNL1        0.1023
     19 C         140.1546  138.5376  164.7596 C.ar    1  UNL1        0.0902
     20 C         140.1672  138.5455  163.2597 C.ar    1  UNL1        0.0040
     21 C         141.4504  138.7873  162.5217 C.ar    1  UNL1        0.0113
     22 C         141.4630  138.7952  161.0218 C.3     1  UNL1        0.1213
     23 C         138.8714  138.2959  165.4977 C.3     1  UNL1        0.4200
     24 F         137.5881  138.0541  166.2358 F       1  UNL1       -0.1658
     25 F         139.1609  136.8242  165.5190 F       1  UNL1       -0.1658
     26 F         138.5818  139.7675  165.4764 F       1  UNL1       -0.1658
     27 C         141.4781  133.0906  155.4752 C.3     1  UNL1        0.2573
     28 O         141.4466  134.5853  155.3538 O.3     1  UNL1       -0.4304
     29 N         139.4368  141.9574  159.0006 N.3     1  UNL1       -0.2975
     30 H         138.7722  142.3015  158.3076 H       1  UNL1        0.1232
     31 C         138.7305  141.9749  160.3238 C.3     1  UNL1        0.0865
     32 C         138.0985  140.7218  160.8533 C.3     1  UNL1        0.0503
     33 C         137.3923  140.7393  162.1765 C.3     1  UNL1        0.1437
     34 O         137.3180  142.0099  162.9703 O.3     1  UNL1       -0.3511
     35 C         137.9500  143.2630  162.4408 C.3     1  UNL1        0.1729
     36 C         138.6563  143.2455  161.1176 C.3     1  UNL1        0.1591
     37 O         139.2882  144.4986  160.5881 O.3     1  UNL1       -0.3496
     38 C         139.9404  145.4659  161.5310 C.3     1  UNL1        0.1742
@<TRIPOS>BOND
     1    27    28    1
     2    28     1    1
     3     1     2    2
     4     1     3   am
     5     3     4    1
     6     5     4    1
     7     5     6    1
     8     6     7    1
     9     7    29    1
    10    29    31    1
    11    31    32    1
    12    32    33    1
    13    33    34    1
    14    34    35    1
    15    35    36    1
    16    36    37    1
    17    37    38    1
    18     7     8    1
    19     8     9    1
    20     9    11    1
    21    11    12    2
    22    11    13   am
    23    13    14    1
    24    14    15    1
    25    15    16    1
    26    16    17   ar
    27    17    18   ar
    28    18    19   ar
    29    19    23    1
    30    23    24    1
    31    23    25    1
    32    23    26    1
    33    19    20   ar
    34    20    21   ar
    35    21    22    1
    36     9    10    1
    37    10     3    1
    38     9     5    1
    39    22    13    1
    40    36    31    1
    41    21    16   ar
    42    29    30    1
