@<TRIPOS>MOLECULE
*****
 36 40 0 0 0
SMALL
GASTEIGER

@<TRIPOS>ATOM
      1 C         139.0366  141.7686  160.4845 C.ar    1  UNL1        0.2204
      2 N         139.9649  140.5974  160.6128 N.ar    1  UNL1       -0.2089
      3 C         139.7588  139.5935  161.7080 C.ar    1  UNL1        0.1402
      4 C         138.6243  139.7607  162.6750 C.ar    1  UNL1        0.1773
      5 C         137.6960  140.9319  162.5467 C.ar    1  UNL1        0.1402
      6 N         137.9021  141.9359  161.4514 N.ar    1  UNL1       -0.2089
      7 C         140.5570  144.2960  161.0329 C.3     1  UNL1        0.0233
      8 C         140.0029  144.0363  159.6634 C.3     1  UNL1        0.0955
      9 C         140.2090  145.0402  158.5681 C.3     1  UNL1        0.1149
     10 N         139.6549  144.7804  157.1986 N.pl3   1  UNL1       -0.2590
     11 C         138.8947  143.5167  156.9244 C.3     1  UNL1        0.1166
     12 C         138.6886  142.5128  158.0197 C.3     1  UNL1        0.1151
     13 N         139.2427  142.7726  159.3892 N.pl3   1  UNL1       -0.2764
     14 C         139.8611  145.7844  156.1033 C.ar    1  UNL1        0.3120
     15 N         140.6524  145.5691  154.8474 N.ar    1  UNL1       -0.0922
     16 N         140.5925  146.8315  154.0396 N.ar    1  UNL1       -0.1018
     17 C         139.7640  147.8272  154.7963 C.ar    1  UNL1        0.3233
     18 O         139.3120  147.1799  156.0717 O.2     1  UNL1       -0.4012
     19 C         139.4438  149.2245  154.3550 C.3     1  UNL1        0.4711
     20 F         139.1236  150.6219  153.9137 F       1  UNL1       -0.1619
     21 F         140.2034  148.9965  153.0818 F       1  UNL1       -0.1619
     22 F         138.6843  149.4526  155.6282 F       1  UNL1       -0.1619
     23 O         138.4182  138.7567  163.7702 O.3     1  UNL1       -0.4674
     24 C         139.5777  138.3215  164.6166 C.3     1  UNL1        0.2344
     25 C         139.8698  139.0262  165.9080 C.ar    1  UNL1        0.0487
     26 C         141.2560  139.5225  166.1947 C.ar    1  UNL1        0.0031
     27 C         141.5482  140.2273  167.4862 C.ar    1  UNL1        0.0192
     28 C         140.4542  140.4358  168.4910 C.ar    1  UNL1        0.0885
     29 C         139.0680  139.9395  168.2043 C.ar    1  UNL1        0.0487
     30 C         138.7758  139.2348  166.9129 C.ar    1  UNL1        0.1411
     31 F         137.3896  138.7385  166.6262 F       1  UNL1       -0.2043
     32 N         140.7463  141.1406  169.7824 N.ar    1  UNL1       -0.1885
     33 C         142.0756  141.6930  170.2043 C.ar    1  UNL1        0.2258
     34 N         141.9114  142.3105  171.5614 N.ar    1  UNL1       -0.1045
     35 N         140.4806  142.1398  171.9783 N.ar    1  UNL1       -0.0222
     36 N         139.7606  141.4167  170.8788 N.ar    1  UNL1       -0.0385
@<TRIPOS>BOND
     1     8     7    1
     2     8     9    1
     3     9    10    1
     4    10    14    1
     5    14    15   ar
     6    15    16   ar
     7    16    17   ar
     8    17    19    1
     9    19    20    1
    10    19    21    1
    11    19    22    1
    12    17    18   ar
    13    10    11    1
    14    11    12    1
    15    12    13    1
    16    13     1    1
    17     1     2   ar
    18     2     3   ar
    19     3     4   ar
    20     4    23    1
    21    23    24    1
    22    24    25    1
    23    25    26   ar
    24    26    27   ar
    25    27    28   ar
    26    28    32    1
    27    32    33   ar
    28    33    34   ar
    29    34    35   ar
    30    35    36   ar
    31    28    29   ar
    32    29    30   ar
    33    30    31    1
    34     4     5   ar
    35     5     6   ar
    36    13     8    1
    37     6     1   ar
    38    18    14   ar
    39    30    25   ar
    40    36    32   ar
@<TRIPOS>MOLECULE
*****
 36 40 0 0 0
SMALL
GASTEIGER

@<TRIPOS>ATOM
      1 C         140.5044  141.9034  160.4173 C.ar    1  UNL1        0.2204
      2 N         139.3400  141.3567  161.1888 N.ar    1  UNL1       -0.2089
      3 C         139.5407  140.2154  162.1411 C.ar    1  UNL1        0.1402
      4 C         140.9059  139.6206  162.3220 C.ar    1  UNL1        0.1773
      5 C         142.0703  140.1673  161.5504 C.ar    1  UNL1        0.1402
      6 N         141.8695  141.3087  160.5981 N.ar    1  UNL1       -0.2089
      7 C         140.9854  144.7206  161.3295 C.3     1  UNL1        0.0233
      8 C         140.5441  144.4534  159.9211 C.3     1  UNL1        0.0955
      9 C         140.3434  145.5947  158.9687 C.3     1  UNL1        0.1149
     10 N         139.9021  145.3275  157.5602 N.pl3   1  UNL1       -0.2590
     11 C         139.6616  143.9189  157.1041 C.3     1  UNL1        0.1166
     12 C         139.8623  142.7776  158.0564 C.3     1  UNL1        0.1151
     13 N         140.3036  143.0448  159.4649 N.pl3   1  UNL1       -0.2764
     14 C         139.7013  146.4689  156.6078 C.ar    1  UNL1        0.3120
     15 N         140.1025  146.4924  155.1627 N.ar    1  UNL1       -0.0922
     16 N         139.7133  147.8252  154.5952 N.ar    1  UNL1       -0.1018
     17 C         139.0714  148.6255  155.6896 C.ar    1  UNL1        0.3233
     18 O         139.0641  147.7872  156.9335 O.2     1  UNL1       -0.4012
     19 C         138.5318  150.0192  155.5625 C.3     1  UNL1        0.4711
     20 F         137.9921  151.4130  155.4353 F       1  UNL1       -0.1619
     21 F         138.0040  149.9428  156.9645 F       1  UNL1       -0.1619
     22 F         139.0595  150.0957  154.1605 F       1  UNL1       -0.1619
     23 O         141.1066  138.4793  163.2743 O.3     1  UNL1       -0.4674
     24 C         140.1477  138.2717  164.4090 C.3     1  UNL1        0.2344
     25 C         140.3546  138.9938  165.7073 C.ar    1  UNL1        0.0487
     26 C         141.7446  139.2689  166.1993 C.ar    1  UNL1        0.0031
     27 C         141.9514  139.9910  167.4978 C.ar    1  UNL1        0.0192
     28 C         140.7682  140.4379  168.3042 C.ar    1  UNL1        0.0885
     29 C         139.3782  140.1628  167.8122 C.ar    1  UNL1        0.0487
     30 C         139.1713  139.4408  166.5138 C.ar    1  UNL1        0.1411
     31 F         137.7813  139.1656  166.0218 F       1  UNL1       -0.2043
     32 N         140.9751  141.1599  169.6025 N.ar    1  UNL1       -0.1885
     33 C         142.0225  142.1982  169.8769 C.ar    1  UNL1        0.2258
     34 N         141.8657  142.6505  171.2985 N.ar    1  UNL1       -0.1045
     35 N         140.7214  141.8918  171.9027 N.ar    1  UNL1       -0.0222
     36 N         140.1710  140.9706  170.8546 N.ar    1  UNL1       -0.0385
@<TRIPOS>BOND
     1     8     7    1
     2     8     9    1
     3     9    10    1
     4    10    14    1
     5    14    15   ar
     6    15    16   ar
     7    16    17   ar
     8    17    19    1
     9    19    20    1
    10    19    21    1
    11    19    22    1
    12    17    18   ar
    13    10    11    1
    14    11    12    1
    15    12    13    1
    16    13     1    1
    17     1     2   ar
    18     2     3   ar
    19     3     4   ar
    20     4    23    1
    21    23    24    1
    22    24    25    1
    23    25    26   ar
    24    26    27   ar
    25    27    28   ar
    26    28    32    1
    27    32    33   ar
    28    33    34   ar
    29    34    35   ar
    30    35    36   ar
    31    28    29   ar
    32    29    30   ar
    33    30    31    1
    34     4     5   ar
    35     5     6   ar
    36    13     8    1
    37     6     1   ar
    38    18    14   ar
    39    30    25   ar
    40    36    32   ar
@<TRIPOS>MOLECULE
*****
 36 40 0 0 0
SMALL
GASTEIGER

@<TRIPOS>ATOM
      1 C         140.0926  141.8958  160.5537 C.ar    1  UNL1        0.2204
      2 N         141.3581  141.0973  160.6583 N.ar    1  UNL1       -0.2089
      3 C         141.4520  139.9655  161.6382 C.ar    1  UNL1        0.1402
      4 C         140.2804  139.6322  162.5136 C.ar    1  UNL1        0.1773
      5 C         139.0149  140.4307  162.4091 C.ar    1  UNL1        0.1402
      6 N         138.9210  141.5625  161.4291 N.ar    1  UNL1       -0.2089
      7 C         140.9453  144.6557  161.3634 C.3     1  UNL1        0.0233
      8 C         140.4251  144.4075  159.9786 C.3     1  UNL1        0.0955
      9 C         140.3312  145.5392  158.9987 C.3     1  UNL1        0.1149
     10 N         139.8109  145.2910  157.6139 N.pl3   1  UNL1       -0.2590
     11 C         139.3846  143.9111  157.2090 C.3     1  UNL1        0.1166
     12 C         139.4785  142.7794  158.1889 C.3     1  UNL1        0.1151
     13 N         139.9987  143.0276  159.5738 N.pl3   1  UNL1       -0.2764
     14 C         139.7171  146.4228  156.6339 C.ar    1  UNL1        0.3120
     15 N         140.3047  146.4453  155.2540 N.ar    1  UNL1       -0.0922
     16 N         139.9699  147.7672  154.6291 N.ar    1  UNL1       -0.1018
     17 C         139.1752  148.5617  155.6228 C.ar    1  UNL1        0.3233
     18 O         139.0190  147.7308  156.8618 O.2     1  UNL1       -0.4012
     19 C         138.6322  149.9443  155.4141 C.3     1  UNL1        0.4711
     20 F         138.0892  151.3269  155.2054 F       1  UNL1       -0.1619
     21 F         137.9694  149.8869  156.7585 F       1  UNL1       -0.1619
     22 F         139.2951  150.0017  154.0698 F       1  UNL1       -0.1619
     23 O         140.3743  138.5005  163.4935 O.3     1  UNL1       -0.4674
     24 C         141.5329  138.4249  164.4433 C.3     1  UNL1        0.2344
     25 C         141.4532  139.1028  165.7789 C.ar    1  UNL1        0.0487
     26 C         140.1922  139.8030  166.1906 C.ar    1  UNL1        0.0031
     27 C         140.1126  140.4809  167.5264 C.ar    1  UNL1        0.0192
     28 C         141.2939  140.4586  168.4504 C.ar    1  UNL1        0.0885
     29 C         142.5549  139.7583  168.0387 C.ar    1  UNL1        0.0487
     30 C         142.6346  139.0804  166.7030 C.ar    1  UNL1        0.1411
     31 F         143.8956  138.3802  166.2914 F       1  UNL1       -0.2043
     32 N         141.2142  141.1364  169.7861 N.ar    1  UNL1       -0.1885
     33 C         142.3497  141.8011  170.5067 C.ar    1  UNL1        0.2258
     34 N         141.8224  142.3442  171.8016 N.ar    1  UNL1       -0.1045
     35 N         140.3610  142.0152  171.8815 N.ar    1  UNL1       -0.0222
     36 N         139.9852  141.2688  170.6357 N.ar    1  UNL1       -0.0385
@<TRIPOS>BOND
     1     8     7    1
     2     8     9    1
     3     9    10    1
     4    10    14    1
     5    14    15   ar
     6    15    16   ar
     7    16    17   ar
     8    17    19    1
     9    19    20    1
    10    19    21    1
    11    19    22    1
    12    17    18   ar
    13    10    11    1
    14    11    12    1
    15    12    13    1
    16    13     1    1
    17     1     2   ar
    18     2     3   ar
    19     3     4   ar
    20     4    23    1
    21    23    24    1
    22    24    25    1
    23    25    26   ar
    24    26    27   ar
    25    27    28   ar
    26    28    32    1
    27    32    33   ar
    28    33    34   ar
    29    34    35   ar
    30    35    36   ar
    31    28    29   ar
    32    29    30   ar
    33    30    31    1
    34     4     5   ar
    35     5     6   ar
    36    13     8    1
    37     6     1   ar
    38    18    14   ar
    39    30    25   ar
    40    36    32   ar
@<TRIPOS>MOLECULE
*****
 36 40 0 0 0
SMALL
GASTEIGER

@<TRIPOS>ATOM
      1 C         140.9890  144.3381  159.9444 C.ar    1  UNL1        0.2204
      2 N         139.8937  143.7613  159.0972 N.ar    1  UNL1       -0.2089
      3 C         139.8052  144.1156  157.6424 C.ar    1  UNL1        0.1402
      4 C         140.8120  145.0468  157.0347 C.ar    1  UNL1        0.1773
      5 C         141.9073  145.6236  157.8818 C.ar    1  UNL1        0.1402
      6 N         141.9958  145.2692  159.3367 N.ar    1  UNL1       -0.2089
      7 C         139.6718  146.0854  161.9967 C.3     1  UNL1        0.0233
      8 C         140.4189  144.8573  162.4254 C.3     1  UNL1        0.0955
      9 C         140.5073  144.5029  163.8802 C.3     1  UNL1        0.1149
     10 N         141.2544  143.2748  164.3089 N.pl3   1  UNL1       -0.2590
     11 C         141.9129  142.4012  163.2828 C.3     1  UNL1        0.1166
     12 C         141.8245  142.7556  161.8280 C.3     1  UNL1        0.1151
     13 N         141.0774  143.9836  161.3993 N.pl3   1  UNL1       -0.2764
     14 C         141.3428  142.9204  165.7638 C.ar    1  UNL1        0.3120
     15 N         142.4890  142.2213  166.4329 N.ar    1  UNL1       -0.0922
     16 N         142.1551  142.0718  167.8876 N.ar    1  UNL1       -0.1018
     17 C         140.8026  142.6784  168.1176 C.ar    1  UNL1        0.3233
     18 O         140.3006  143.2029  166.8050 O.2     1  UNL1       -0.4012
     19 C         140.0792  142.7482  169.4297 C.3     1  UNL1        0.4711
     20 F         139.3558  142.8181  170.7419 F       1  UNL1       -0.1619
     21 F         140.4764  144.1877  169.5721 F       1  UNL1       -0.1619
     22 F         139.6821  141.3088  169.2874 F       1  UNL1       -0.1619
     23 O         140.7236  145.4012  155.5799 O.3     1  UNL1       -0.4674
     24 C         139.4890  146.0626  155.0428 C.3     1  UNL1        0.2344
     25 C         139.3988  147.5592  154.9987 C.ar    1  UNL1        0.0487
     26 C         138.6477  148.2971  156.0670 C.ar    1  UNL1        0.0031
     27 C         138.5575  149.7938  156.0229 C.ar    1  UNL1        0.0192
     28 C         139.2184  150.5525  154.9105 C.ar    1  UNL1        0.0885
     29 C         139.9696  149.8146  153.8422 C.ar    1  UNL1        0.0487
     30 C         140.0598  148.3180  153.8862 C.ar    1  UNL1        0.1411
     31 F         140.8109  147.5801  152.8179 F       1  UNL1       -0.2043
     32 N         139.1282  152.0491  154.8664 N.ar    1  UNL1       -0.1885
     33 C         139.3076  152.9078  153.6495 C.ar    1  UNL1        0.2258
     34 N         139.1330  154.3392  154.0625 N.ar    1  UNL1       -0.1045
     35 N         138.8457  154.3653  155.5345 N.ar    1  UNL1       -0.0222
     36 N         138.8427  152.9499  156.0313 N.ar    1  UNL1       -0.0385
@<TRIPOS>BOND
     1     8     7    1
     2     8     9    1
     3     9    10    1
     4    10    14    1
     5    14    15   ar
     6    15    16   ar
     7    16    17   ar
     8    17    19    1
     9    19    20    1
    10    19    21    1
    11    19    22    1
    12    17    18   ar
    13    10    11    1
    14    11    12    1
    15    12    13    1
    16    13     1    1
    17     1     2   ar
    18     2     3   ar
    19     3     4   ar
    20     4    23    1
    21    23    24    1
    22    24    25    1
    23    25    26   ar
    24    26    27   ar
    25    27    28   ar
    26    28    32    1
    27    32    33   ar
    28    33    34   ar
    29    34    35   ar
    30    35    36   ar
    31    28    29   ar
    32    29    30   ar
    33    30    31    1
    34     4     5   ar
    35     5     6   ar
    36    13     8    1
    37     6     1   ar
    38    18    14   ar
    39    30    25   ar
    40    36    32   ar
@<TRIPOS>MOLECULE
*****
 36 40 0 0 0
SMALL
GASTEIGER

@<TRIPOS>ATOM
      1 C         142.1742  140.3700  160.2287 C.ar    1  UNL1        0.2204
      2 N         142.6243  139.5065  161.3697 N.ar    1  UNL1       -0.2089
      3 C         141.6440  139.0864  162.4244 C.ar    1  UNL1        0.1402
      4 C         140.2135  139.5297  162.3381 C.ar    1  UNL1        0.1773
      5 C         139.7635  140.3932  161.1971 C.ar    1  UNL1        0.1402
      6 N         140.7439  140.8134  160.1424 N.ar    1  UNL1       -0.2089
      7 C         143.7779  142.8802  160.5860 C.3     1  UNL1        0.0233
      8 C         143.9564  142.0453  159.3527 C.3     1  UNL1        0.0955
      9 C         144.9368  142.4654  158.2980 C.3     1  UNL1        0.1149
     10 N         145.1153  141.6305  157.0647 N.pl3   1  UNL1       -0.2590
     11 C         144.3135  140.3754  156.8861 C.3     1  UNL1        0.1166
     12 C         143.3332  139.9553  157.9407 C.3     1  UNL1        0.1151
     13 N         143.1547  140.7902  159.1740 N.pl3   1  UNL1       -0.2764
     14 C         146.0958  142.0506  156.0100 C.ar    1  UNL1        0.3120
     15 N         145.7887  142.8885  154.8043 N.ar    1  UNL1       -0.0922
     16 N         147.0585  143.0624  154.0250 N.ar    1  UNL1       -0.1018
     17 C         148.1504  142.3320  154.7491 C.ar    1  UNL1        0.3233
     18 O         147.5554  141.7067  155.9759 O.2     1  UNL1       -0.4012
     19 C         149.5854  142.2425  154.3215 C.3     1  UNL1        0.4711
     20 F         151.0203  142.1531  153.8938 F       1  UNL1       -0.1619
     21 F         149.8046  141.1200  155.2919 F       1  UNL1       -0.1619
     22 F         149.3661  143.3651  153.3510 F       1  UNL1       -0.1619
     23 O         139.2332  139.1095  163.3928 O.3     1  UNL1       -0.4674
     24 C         139.7020  138.3266  164.5833 C.3     1  UNL1        0.2344
     25 C         139.9363  139.0204  165.8923 C.ar    1  UNL1        0.0487
     26 C         141.3038  139.5325  166.2355 C.ar    1  UNL1        0.0031
     27 C         141.5382  140.2263  167.5446 C.ar    1  UNL1        0.0192
     28 C         140.4050  140.4082  168.5104 C.ar    1  UNL1        0.0885
     29 C         139.0375  139.8962  168.1672 C.ar    1  UNL1        0.0487
     30 C         138.8032  139.2023  166.8582 C.ar    1  UNL1        0.1411
     31 F         137.4357  138.6903  166.5150 F       1  UNL1       -0.2043
     32 N         140.6394  141.1020  169.8194 N.ar    1  UNL1       -0.1885
     33 C         141.9646  141.2754  170.5006 C.ar    1  UNL1        0.2258
     34 N         141.7340  142.0249  171.7793 N.ar    1  UNL1       -0.1045
     35 N         140.2663  142.3148  171.8885 N.ar    1  UNL1       -0.0222
     36 N         139.5898  141.7444  170.6772 N.ar    1  UNL1       -0.0385
@<TRIPOS>BOND
     1     8     7    1
     2     8     9    1
     3     9    10    1
     4    10    14    1
     5    14    15   ar
     6    15    16   ar
     7    16    17   ar
     8    17    19    1
     9    19    20    1
    10    19    21    1
    11    19    22    1
    12    17    18   ar
    13    10    11    1
    14    11    12    1
    15    12    13    1
    16    13     1    1
    17     1     2   ar
    18     2     3   ar
    19     3     4   ar
    20     4    23    1
    21    23    24    1
    22    24    25    1
    23    25    26   ar
    24    26    27   ar
    25    27    28   ar
    26    28    32    1
    27    32    33   ar
    28    33    34   ar
    29    34    35   ar
    30    35    36   ar
    31    28    29   ar
    32    29    30   ar
    33    30    31    1
    34     4     5   ar
    35     5     6   ar
    36    13     8    1
    37     6     1   ar
    38    18    14   ar
    39    30    25   ar
    40    36    32   ar
@<TRIPOS>MOLECULE
*****
 36 40 0 0 0
SMALL
GASTEIGER

@<TRIPOS>ATOM
      1 C         140.6707  138.4999  160.8681 C.ar    1  UNL1        0.2204
      2 N         139.5913  138.6332  159.8351 N.ar    1  UNL1       -0.2089
      3 C         139.9083  138.4102  158.3860 C.ar    1  UNL1        0.1402
      4 C         141.3048  138.0539  157.9700 C.ar    1  UNL1        0.1773
      5 C         142.3841  137.9206  159.0031 C.ar    1  UNL1        0.1402
      6 N         142.0671  138.1436  160.4521 N.ar    1  UNL1       -0.2089
      7 C         141.2260  141.1632  162.1325 C.3     1  UNL1        0.0233
      8 C         140.6313  140.0546  162.9494 C.3     1  UNL1        0.0955
      9 C         140.3142  140.2775  164.3984 C.3     1  UNL1        0.1149
     10 N         139.7194  139.1689  165.2152 N.pl3   1  UNL1       -0.2590
     11 C         139.4417  137.8373  164.5831 C.3     1  UNL1        0.1166
     12 C         139.7588  137.6144  163.1340 C.3     1  UNL1        0.1151
     13 N         140.3536  138.7230  162.3172 N.pl3   1  UNL1       -0.2764
     14 C         139.4023  139.3920  166.6643 C.ar    1  UNL1        0.3120
     15 N         138.1332  138.9977  167.3600 N.ar    1  UNL1       -0.0922
     16 N         138.2452  139.4105  168.7977 N.ar    1  UNL1       -0.1018
     17 C         139.5836  140.0599  168.9906 C.ar    1  UNL1        0.3233
     18 O         140.2987  140.0484  167.6721 O.2     1  UNL1       -0.4012
     19 C         140.1138  140.6220  170.2763 C.3     1  UNL1        0.4711
     20 F         140.6439  141.1842  171.5619 F       1  UNL1       -0.1619
     21 F         139.0641  141.6930  170.2408 F       1  UNL1       -0.1619
     22 F         141.1634  139.5511  170.3117 F       1  UNL1       -0.1619
     23 O         141.6218  137.8308  156.5210 O.3     1  UNL1       -0.4674
     24 C         142.7953  136.9813  156.1321 C.3     1  UNL1        0.2344
     25 C         142.6625  135.4875  156.1019 C.ar    1  UNL1        0.0487
     26 C         143.5759  134.6364  156.9335 C.ar    1  UNL1        0.0031
     27 C         143.4431  133.1426  156.9033 C.ar    1  UNL1        0.0192
     28 C         142.3969  132.4999  156.0416 C.ar    1  UNL1        0.0885
     29 C         141.4836  133.3509  155.2101 C.ar    1  UNL1        0.0487
     30 C         141.6163  134.8447  155.2402 C.ar    1  UNL1        0.1411
     31 F         140.7030  135.6958  154.4087 F       1  UNL1       -0.2043
     32 N         142.2642  131.0061  156.0114 N.ar    1  UNL1       -0.1885
     33 C         141.3106  130.2227  155.1587 C.ar    1  UNL1        0.2258
     34 N         141.5187  128.7658  155.4489 N.ar    1  UNL1       -0.1045
     35 N         142.6010  128.6487  156.4810 N.ar    1  UNL1       -0.0222
     36 N         143.0617  130.0334  156.8287 N.ar    1  UNL1       -0.0385
@<TRIPOS>BOND
     1     8     7    1
     2     8     9    1
     3     9    10    1
     4    10    14    1
     5    14    15   ar
     6    15    16   ar
     7    16    17   ar
     8    17    19    1
     9    19    20    1
    10    19    21    1
    11    19    22    1
    12    17    18   ar
    13    10    11    1
    14    11    12    1
    15    12    13    1
    16    13     1    1
    17     1     2   ar
    18     2     3   ar
    19     3     4   ar
    20     4    23    1
    21    23    24    1
    22    24    25    1
    23    25    26   ar
    24    26    27   ar
    25    27    28   ar
    26    28    32    1
    27    32    33   ar
    28    33    34   ar
    29    34    35   ar
    30    35    36   ar
    31    28    29   ar
    32    29    30   ar
    33    30    31    1
    34     4     5   ar
    35     5     6   ar
    36    13     8    1
    37     6     1   ar
    38    18    14   ar
    39    30    25   ar
    40    36    32   ar
@<TRIPOS>MOLECULE
*****
 36 40 0 0 0
SMALL
GASTEIGER

@<TRIPOS>ATOM
      1 C         142.1305  138.7511  161.4793 C.ar    1  UNL1        0.2204
      2 N         140.9235  139.2102  160.7163 N.ar    1  UNL1       -0.2089
      3 C         140.7502  138.8167  159.2793 C.ar    1  UNL1        0.1402
      4 C         141.7839  137.9639  158.6052 C.ar    1  UNL1        0.1773
      5 C         142.9910  137.5047  159.3683 C.ar    1  UNL1        0.1402
      6 N         143.1642  137.8984  160.8054 N.ar    1  UNL1       -0.2089
      7 C         141.0175  137.0119  163.6557 C.3     1  UNL1        0.0233
      8 C         141.7473  138.2751  164.0045 C.3     1  UNL1        0.0955
      9 C         141.9206  138.6687  165.4415 C.3     1  UNL1        0.1149
     10 N         142.6504  139.9319  165.7904 N.pl3   1  UNL1       -0.2590
     11 C         143.2069  140.8015  164.7023 C.3     1  UNL1        0.1166
     12 C         143.0336  140.4079  163.2653 C.3     1  UNL1        0.1151
     13 N         142.3038  139.1447  162.9164 N.pl3   1  UNL1       -0.2764
     14 C         142.8236  140.3255  167.2275 C.ar    1  UNL1        0.3120
     15 N         142.8713  139.3894  168.3985 N.ar    1  UNL1       -0.0922
     16 N         143.0568  140.2097  169.6405 N.ar    1  UNL1       -0.1018
     17 C         143.1237  141.6529  169.2371 C.ar    1  UNL1        0.3233
     18 O         142.9796  141.7245  167.7458 O.2     1  UNL1       -0.4012
     19 C         143.3033  142.8196  170.1626 C.3     1  UNL1        0.4711
     20 F         143.4828  143.9863  171.0881 F       1  UNL1       -0.1619
     21 F         144.7727  142.5295  170.2433 F       1  UNL1       -0.1619
     22 F         141.8338  143.1098  170.0819 F       1  UNL1       -0.1619
     23 O         141.6106  137.5703  157.1682 O.3     1  UNL1       -0.4674
     24 C         142.6483  136.7243  156.4919 C.3     1  UNL1        0.2344
     25 C         142.3581  135.2855  156.1829 C.ar    1  UNL1        0.0487
     26 C         141.4577  134.9314  155.0367 C.ar    1  UNL1        0.0031
     27 C         141.1674  133.4925  154.7277 C.ar    1  UNL1        0.0192
     28 C         141.7775  132.4078  155.5650 C.ar    1  UNL1        0.0885
     29 C         142.6779  132.7619  156.7113 C.ar    1  UNL1        0.0487
     30 C         142.9682  134.2007  157.0203 C.ar    1  UNL1        0.1411
     31 F         143.8685  134.5548  158.1665 F       1  UNL1       -0.2043
     32 N         141.4872  130.9690  155.2560 N.ar    1  UNL1       -0.1885
     33 C         142.4577  129.8304  155.3660 C.ar    1  UNL1        0.2258
     34 N         141.7458  128.5738  154.9607 N.ar    1  UNL1       -0.1045
     35 N         140.3354  128.9357  154.6003 N.ar    1  UNL1       -0.0222
     36 N         140.1756  130.4160  154.7828 N.ar    1  UNL1       -0.0385
@<TRIPOS>BOND
     1     8     7    1
     2     8     9    1
     3     9    10    1
     4    10    14    1
     5    14    15   ar
     6    15    16   ar
     7    16    17   ar
     8    17    19    1
     9    19    20    1
    10    19    21    1
    11    19    22    1
    12    17    18   ar
    13    10    11    1
    14    11    12    1
    15    12    13    1
    16    13     1    1
    17     1     2   ar
    18     2     3   ar
    19     3     4   ar
    20     4    23    1
    21    23    24    1
    22    24    25    1
    23    25    26   ar
    24    26    27   ar
    25    27    28   ar
    26    28    32    1
    27    32    33   ar
    28    33    34   ar
    29    34    35   ar
    30    35    36   ar
    31    28    29   ar
    32    29    30   ar
    33    30    31    1
    34     4     5   ar
    35     5     6   ar
    36    13     8    1
    37     6     1   ar
    38    18    14   ar
    39    30    25   ar
    40    36    32   ar
@<TRIPOS>MOLECULE
*****
 36 40 0 0 0
SMALL
GASTEIGER

@<TRIPOS>ATOM
      1 C         141.1053  141.5145  159.1178 C.ar    1  UNL1        0.2204
      2 N         139.6619  141.6976  159.4824 N.ar    1  UNL1       -0.2089
      3 C         139.1741  143.0305  159.9677 C.ar    1  UNL1        0.1402
      4 C         140.1299  144.1803  160.0884 C.ar    1  UNL1        0.1773
      5 C         141.5733  143.9972  159.7238 C.ar    1  UNL1        0.1402
      6 N         142.0610  142.6643  159.2385 N.ar    1  UNL1       -0.2089
      7 C         141.0155  140.8589  156.1917 C.3     1  UNL1        0.0233
      8 C         141.5481  139.8538  157.1695 C.3     1  UNL1        0.0955
      9 C         142.0358  138.5209  156.6843 C.3     1  UNL1        0.1149
     10 N         142.5684  137.5158  157.6621 N.pl3   1  UNL1       -0.2590
     11 C         142.6133  137.8435  159.1251 C.3     1  UNL1        0.1166
     12 C         142.1256  139.1764  159.6103 C.3     1  UNL1        0.1151
     13 N         141.5930  140.1816  158.6325 N.pl3   1  UNL1       -0.2764
     14 C         143.0561  136.1828  157.1768 C.ar    1  UNL1        0.3120
     15 N         143.3738  135.8243  155.7554 N.ar    1  UNL1       -0.0922
     16 N         143.8258  134.3943  155.7279 N.ar    1  UNL1       -0.1018
     17 C         143.7874  133.8689  157.1324 C.ar    1  UNL1        0.3233
     18 O         143.3117  134.9743  158.0278 O.2     1  UNL1       -0.4012
     19 C         144.1594  132.4818  157.5653 C.3     1  UNL1        0.4711
     20 F         144.5313  131.0947  157.9983 F       1  UNL1       -0.1619
     21 F         145.3299  133.0326  158.3245 F       1  UNL1       -0.1619
     22 F         142.9888  131.9309  156.8061 F       1  UNL1       -0.1619
     23 O         139.6422  145.5132  160.5737 O.3     1  UNL1       -0.4674
     24 C         139.9727  145.9725  161.9628 C.3     1  UNL1        0.2344
     25 C         139.9784  144.9899  163.0961 C.ar    1  UNL1        0.0487
     26 C         141.2697  144.6268  163.7676 C.ar    1  UNL1        0.0031
     27 C         141.2754  143.6442  164.9009 C.ar    1  UNL1        0.0192
     28 C         139.9898  143.0246  165.3628 C.ar    1  UNL1        0.0885
     29 C         138.6985  143.3876  164.6914 C.ar    1  UNL1        0.0487
     30 C         138.6928  144.3702  163.5581 C.ar    1  UNL1        0.1411
     31 F         137.4015  144.7332  162.8866 F       1  UNL1       -0.2043
     32 N         139.9955  142.0420  166.4961 N.ar    1  UNL1       -0.1885
     33 C         140.5980  142.2633  167.8519 C.ar    1  UNL1        0.2258
     34 N         140.3746  141.0236  168.6664 N.ar    1  UNL1       -0.1045
     35 N         139.6340  140.0361  167.8140 N.ar    1  UNL1       -0.0222
     36 N         139.3997  140.6655  166.4727 N.ar    1  UNL1       -0.0385
@<TRIPOS>BOND
     1     8     7    1
     2     8     9    1
     3     9    10    1
     4    10    14    1
     5    14    15   ar
     6    15    16   ar
     7    16    17   ar
     8    17    19    1
     9    19    20    1
    10    19    21    1
    11    19    22    1
    12    17    18   ar
    13    10    11    1
    14    11    12    1
    15    12    13    1
    16    13     1    1
    17     1     2   ar
    18     2     3   ar
    19     3     4   ar
    20     4    23    1
    21    23    24    1
    22    24    25    1
    23    25    26   ar
    24    26    27   ar
    25    27    28   ar
    26    28    32    1
    27    32    33   ar
    28    33    34   ar
    29    34    35   ar
    30    35    36   ar
    31    28    29   ar
    32    29    30   ar
    33    30    31    1
    34     4     5   ar
    35     5     6   ar
    36    13     8    1
    37     6     1   ar
    38    18    14   ar
    39    30    25   ar
    40    36    32   ar
@<TRIPOS>MOLECULE
*****
 36 40 0 0 0
SMALL
GASTEIGER

@<TRIPOS>ATOM
      1 C         142.9180  140.8543  159.9651 C.ar    1  UNL1        0.2204
      2 N         144.2356  141.3951  160.4357 N.ar    1  UNL1       -0.2089
      3 C         144.2910  142.7032  161.1676 C.ar    1  UNL1        0.1402
      4 C         143.0288  143.4705  161.4290 C.ar    1  UNL1        0.1773
      5 C         141.7113  142.9297  160.9584 C.ar    1  UNL1        0.1402
      6 N         141.6559  141.6215  160.2264 N.ar    1  UNL1       -0.2089
      7 C         143.0449  138.2747  161.4915 C.3     1  UNL1        0.0233
      8 C         142.9261  138.2564  159.9963 C.3     1  UNL1        0.0955
      9 C         142.8707  136.9483  159.2644 C.3     1  UNL1        0.1149
     10 N         142.7518  136.9299  157.7692 N.pl3   1  UNL1       -0.2590
     11 C         142.6884  138.2197  157.0060 C.3     1  UNL1        0.1166
     12 C         142.7438  139.5277  157.7380 C.3     1  UNL1        0.1151
     13 N         142.8626  139.5461  159.2331 N.pl3   1  UNL1       -0.2764
     14 C         142.6964  135.6218  157.0372 C.ar    1  UNL1        0.3120
     15 N         141.8700  135.3264  155.8208 N.ar    1  UNL1       -0.0922
     16 N         142.1206  133.9014  155.4250 N.ar    1  UNL1       -0.1018
     17 C         143.1019  133.3161  156.3969 C.ar    1  UNL1        0.3233
     18 O         143.4577  134.3793  157.3933 O.2     1  UNL1       -0.4012
     19 C         143.6338  131.9137  156.3760 C.3     1  UNL1        0.4711
     20 F         144.1658  130.5114  156.3551 F       1  UNL1       -0.1619
     21 F         145.0178  132.4422  156.1408 F       1  UNL1       -0.1619
     22 F         142.2499  131.3852  156.6111 F       1  UNL1       -0.1619
     23 O         143.0843  144.7786  162.1609 O.3     1  UNL1       -0.4674
     24 C         143.2853  144.7985  163.6473 C.3     1  UNL1        0.2344
     25 C         142.5075  143.8603  164.5219 C.ar    1  UNL1        0.0487
     26 C         143.2175  142.7747  165.2750 C.ar    1  UNL1        0.0031
     27 C         142.4397  141.8365  166.1496 C.ar    1  UNL1        0.0192
     28 C         140.9519  141.9841  166.2711 C.ar    1  UNL1        0.0885
     29 C         140.2419  143.0697  165.5179 C.ar    1  UNL1        0.0487
     30 C         141.0197  144.0079  164.6433 C.ar    1  UNL1        0.1411
     31 F         140.3097  145.0935  163.8902 F       1  UNL1       -0.2043
     32 N         140.1742  141.0460  167.1457 N.ar    1  UNL1       -0.1885
     33 C         140.2172  140.9977  168.6444 C.ar    1  UNL1        0.2258
     34 N         139.2864  139.9133  169.1002 N.ar    1  UNL1       -0.1045
     35 N         138.6681  139.2913  167.8832 N.ar    1  UNL1       -0.0222
     36 N         139.2168  139.9913  166.6753 N.ar    1  UNL1       -0.0385
@<TRIPOS>BOND
     1     8     7    1
     2     8     9    1
     3     9    10    1
     4    10    14    1
     5    14    15   ar
     6    15    16   ar
     7    16    17   ar
     8    17    19    1
     9    19    20    1
    10    19    21    1
    11    19    22    1
    12    17    18   ar
    13    10    11    1
    14    11    12    1
    15    12    13    1
    16    13     1    1
    17     1     2   ar
    18     2     3   ar
    19     3     4   ar
    20     4    23    1
    21    23    24    1
    22    24    25    1
    23    25    26   ar
    24    26    27   ar
    25    27    28   ar
    26    28    32    1
    27    32    33   ar
    28    33    34   ar
    29    34    35   ar
    30    35    36   ar
    31    28    29   ar
    32    29    30   ar
    33    30    31    1
    34     4     5   ar
    35     5     6   ar
    36    13     8    1
    37     6     1   ar
    38    18    14   ar
    39    30    25   ar
    40    36    32   ar
