@<TRIPOS>MOLECULE
*****
 41 46 0 0 0
SMALL
GASTEIGER

@<TRIPOS>ATOM
      1 C         143.3810  142.8529  159.0355 C.3     1  UNL1        0.0584
      2 C         142.7860  144.0025  158.2777 C.3     1  UNL1        0.0174
      3 N         143.2062  142.7642  160.5227 N.3     1  UNL1       -0.2733
      4 C         144.4572  142.9216  161.3355 C.3     1  UNL1        0.0768
      5 C         144.6145  142.8834  162.8268 C.3     1  UNL1        0.0434
      6 C         143.5598  142.6785  163.8734 C.ar    1  UNL1       -0.0233
      7 C         144.1448  142.7103  165.2544 C.ar    1  UNL1        0.0178
      8 C         143.2573  142.5247  166.4493 C.ar    1  UNL1        0.1181
      9 N         143.5461  142.5075  167.9211 N.ar    1  UNL1       -0.2050
     10 C         142.2521  142.2794  168.6448 C.ar    1  UNL1        0.3031
     11 O         141.1636  142.1557  167.6202 O.2     1  UNL1       -0.4321
     12 C         141.7848  142.3073  166.2634 C.ar    1  UNL1        0.1603
     13 C         141.1998  142.2755  164.8824 C.ar    1  UNL1        0.0101
     14 C         139.7274  142.0580  164.6965 C.3     1  UNL1        0.0339
     15 C         142.0873  142.4610  163.6875 C.ar    1  UNL1       -0.0256
     16 C         141.3059  142.3949  162.4089 C.3     1  UNL1        0.0431
     17 C         141.8039  142.5298  161.0004 C.3     1  UNL1        0.0768
     18 C         142.0775  142.1907  170.1319 C.3     1  UNL1        0.4696
     19 F         141.9028  142.1019  171.6190 F       1  UNL1       -0.1619
     20 F         141.7093  140.7424  170.0023 F       1  UNL1       -0.1619
     21 F         142.4457  143.6389  170.2617 F       1  UNL1       -0.1619
     22 C         144.1508  141.7920  158.3063 C.3     1  UNL1        0.0280
     23 C         143.6399  141.2581  157.0009 C.3     1  UNL1        0.0665
     24 S         142.7517  140.0495  156.9810 S.3     1  UNL1       -0.0756
     25 C         141.5690  138.4897  160.3326 C.ar    1  UNL1        0.1669
     26 N         142.7639  137.6377  160.0221 N.ar    1  UNL1       -0.1282
     27 N         143.3524  138.1183  158.7287 N.ar    1  UNL1       -0.1221
     28 C         142.5212  139.2674  158.2399 C.ar    1  UNL1        0.1932
     29 N         141.4190  139.4969  159.2312 N.ar    1  UNL1       -0.2884
     30 C         140.3539  140.5489  159.1375 C.3     1  UNL1        0.1340
     31 C         142.9754  138.9572  167.0448 C.3     1  UNL1        0.0521
     32 C         142.4017  138.8073  165.6671 C.ar    1  UNL1        0.0593
     33 C         143.2905  138.9393  164.4660 C.ar    1  UNL1        0.0147
     34 C         142.7167  138.7895  163.0882 C.ar    1  UNL1        0.0028
     35 C         141.2540  138.5076  162.9115 C.ar    1  UNL1        0.0206
     36 C         140.6802  138.3577  161.5337 C.ar    1  UNL1        0.0374
     37 C         139.2175  138.0759  161.3569 C.ar    1  UNL1        0.0031
     38 C         138.3287  137.9439  162.5580 C.ar    1  UNL1        0.0016
     39 C         138.9025  138.0937  163.9358 C.ar    1  UNL1        0.0191
     40 C         140.3652  138.3756  164.1125 C.ar    1  UNL1        0.0810
     41 N         140.9390  138.5255  165.4903 N.ar    1  UNL1       -0.2497
@<TRIPOS>BOND
     1    31    32    1
     2    32    33   ar
     3    33    34   ar
     4    34    35   ar
     5    35    36   ar
     6    36    25    1
     7    25    26   ar
     8    26    27   ar
     9    27    28   ar
    10    28    24    1
    11    24    23    1
    12    23    22    1
    13    22     1    1
    14     1     2    1
    15     1     3    1
    16     3     4    1
    17     4     5    1
    18     5     6    1
    19     6     7   ar
    20     7     8   ar
    21     8     9   ar
    22     9    10   ar
    23    10    18    1
    24    18    19    1
    25    18    20    1
    26    18    21    1
    27    10    11   ar
    28    11    12   ar
    29    12    13   ar
    30    13    14    1
    31    13    15   ar
    32    15    16    1
    33    16    17    1
    34    28    29   ar
    35    29    30    1
    36    36    37   ar
    37    37    38   ar
    38    38    39   ar
    39    39    40   ar
    40    40    41   ar
    41    41    32   ar
    42    40    35   ar
    43    29    25   ar
    44    17     3    1
    45    15     6   ar
    46    12     8   ar
@<TRIPOS>MOLECULE
*****
 41 46 0 0 0
SMALL
GASTEIGER

@<TRIPOS>ATOM
      1 C         138.7099  139.8339  159.1108 C.3     1  UNL1        0.0584
      2 C         137.6774  140.6695  158.4140 C.3     1  UNL1        0.0174
      3 N         138.8876  139.9458  160.5961 N.3     1  UNL1       -0.2733
      4 C         138.4531  138.7529  161.3951 C.3     1  UNL1        0.0768
      5 C         138.5001  138.5554  162.8814 C.3     1  UNL1        0.0434
      6 C         138.9930  139.5018  163.9355 C.ar    1  UNL1       -0.0233
      7 C         138.8631  138.9097  165.3076 C.ar    1  UNL1        0.0178
      8 C         139.3009  139.6954  166.5080 C.ar    1  UNL1        0.1181
      9 N         139.2945  139.3760  167.9736 N.ar    1  UNL1       -0.2050
     10 C         139.8583  140.5564  168.7077 C.ar    1  UNL1        0.3031
     11 O         140.2131  141.6052  167.6958 O.2     1  UNL1       -0.4321
     12 C         139.8686  141.0732  166.3364 C.ar    1  UNL1        0.1603
     13 C         139.9986  141.6652  164.9643 C.ar    1  UNL1        0.0101
     14 C         140.5664  143.0429  164.7926 C.3     1  UNL1        0.0339
     15 C         139.5608  140.8795  163.7639 C.ar    1  UNL1       -0.0256
     16 C         139.7759  141.6511  162.4956 C.3     1  UNL1        0.0431
     17 C         139.4762  141.2355  161.0858 C.3     1  UNL1        0.0768
     18 C         140.0360  140.6681  170.1930 C.3     1  UNL1        0.4696
     19 F         140.2137  140.7798  171.6781 F       1  UNL1       -0.1619
     20 F         140.8409  139.4023  170.1919 F       1  UNL1       -0.1619
     21 F         139.2311  141.9338  170.1941 F       1  UNL1       -0.1619
     22 C         139.5647  138.8864  158.3225 C.3     1  UNL1        0.0280
     23 C         140.2337  139.3506  157.0628 C.3     1  UNL1        0.0665
     24 S         141.7229  139.5264  157.0254 S.3     1  UNL1       -0.0756
     25 C         143.4247  140.4009  160.4024 C.ar    1  UNL1        0.1669
     26 N         143.9757  139.0294  160.1468 N.ar    1  UNL1       -0.1282
     27 N         143.4053  138.5349  158.8506 N.ar    1  UNL1       -0.1221
     28 C         142.5017  139.6007  158.3051 C.ar    1  UNL1        0.1932
     29 N         142.5137  140.7540  159.2643 N.ar    1  UNL1       -0.2884
     30 C         141.7489  142.0354  159.1119 C.3     1  UNL1        0.1340
     31 C         142.8969  139.1554  167.1419 C.3     1  UNL1        0.0521
     32 C         143.1053  139.6833  165.7534 C.ar    1  UNL1        0.0593
     33 C         142.7991  138.8170  164.5678 C.ar    1  UNL1        0.0147
     34 C         143.0076  139.3450  163.1793 C.ar    1  UNL1        0.0028
     35 C         143.5223  140.7393  162.9765 C.ar    1  UNL1        0.0206
     36 C         143.7308  141.2672  161.5881 C.ar    1  UNL1        0.0374
     37 C         144.2455  142.6615  161.3852 C.ar    1  UNL1        0.0031
     38 C         144.5517  143.5278  162.5709 C.ar    1  UNL1        0.0016
     39 C         144.3432  142.9999  163.9594 C.ar    1  UNL1        0.0191
     40 C         143.8285  141.6055  164.1621 C.ar    1  UNL1        0.0810
     41 N         143.6200  141.0776  165.5506 N.ar    1  UNL1       -0.2497
@<TRIPOS>BOND
     1    31    32    1
     2    32    33   ar
     3    33    34   ar
     4    34    35   ar
     5    35    36   ar
     6    36    25    1
     7    25    26   ar
     8    26    27   ar
     9    27    28   ar
    10    28    24    1
    11    24    23    1
    12    23    22    1
    13    22     1    1
    14     1     2    1
    15     1     3    1
    16     3     4    1
    17     4     5    1
    18     5     6    1
    19     6     7   ar
    20     7     8   ar
    21     8     9   ar
    22     9    10   ar
    23    10    18    1
    24    18    19    1
    25    18    20    1
    26    18    21    1
    27    10    11   ar
    28    11    12   ar
    29    12    13   ar
    30    13    14    1
    31    13    15   ar
    32    15    16    1
    33    16    17    1
    34    28    29   ar
    35    29    30    1
    36    36    37   ar
    37    37    38   ar
    38    38    39   ar
    39    39    40   ar
    40    40    41   ar
    41    41    32   ar
    42    40    35   ar
    43    29    25   ar
    44    17     3    1
    45    15     6   ar
    46    12     8   ar
@<TRIPOS>MOLECULE
*****
 41 46 0 0 0
SMALL
GASTEIGER

@<TRIPOS>ATOM
      1 C         138.3094  141.6567  158.9240 C.3     1  UNL1        0.0584
      2 C         137.6423  140.6032  158.0903 C.3     1  UNL1        0.0174
      3 N         138.5027  141.4378  160.3953 N.3     1  UNL1       -0.2733
      4 C         138.1196  140.0809  160.9072 C.3     1  UNL1        0.0768
      5 C         138.1926  139.5558  162.3105 C.3     1  UNL1        0.0434
      6 C         138.6668  140.2579  163.5482 C.ar    1  UNL1       -0.0233
      7 C         138.5751  139.3680  164.7523 C.ar    1  UNL1        0.0178
      8 C         139.0015  139.8787  166.0966 C.ar    1  UNL1        0.1181
      9 N         139.0252  139.2377  167.4525 N.ar    1  UNL1       -0.2050
     10 C         139.5581  140.2422  168.4309 C.ar    1  UNL1        0.3031
     11 O         139.8637  141.5039  167.6796 O.2     1  UNL1       -0.4321
     12 C         139.5198  141.2793  166.2370 C.ar    1  UNL1        0.1603
     13 C         139.6116  142.1692  165.0329 C.ar    1  UNL1        0.0101
     14 C         140.1299  143.5698  165.1732 C.3     1  UNL1        0.0339
     15 C         139.1851  141.6585  163.6886 C.ar    1  UNL1       -0.0256
     16 C         139.3572  142.7029  162.6258 C.3     1  UNL1        0.0431
     17 C         139.0534  142.6046  161.1601 C.3     1  UNL1        0.0768
     18 C         139.7513  140.0232  169.9022 C.3     1  UNL1        0.4696
     19 F         139.9445  139.8042  171.3734 F       1  UNL1       -0.1619
     20 F         141.0923  139.4068  169.6343 F       1  UNL1       -0.1619
     21 F         138.4103  140.6396  170.1701 F       1  UNL1       -0.1619
     22 C         138.7833  142.9291  158.2864 C.3     1  UNL1        0.0280
     23 C         139.8531  142.8884  157.2358 C.3     1  UNL1        0.0665
     24 S         141.2032  143.4784  157.5168 S.3     1  UNL1       -0.0756
     25 C         142.9436  142.8843  160.9349 C.ar    1  UNL1        0.1669
     26 N         143.4629  141.7233  160.1396 N.ar    1  UNL1       -0.1282
     27 N         142.8741  141.8046  158.7623 N.ar    1  UNL1       -0.1221
     28 C         141.9910  143.0158  158.7065 C.ar    1  UNL1        0.1932
     29 N         142.0340  143.6830  160.0492 N.ar    1  UNL1       -0.2884
     30 C         141.2966  144.9302  160.4380 C.3     1  UNL1        0.1340
     31 C         142.6374  138.9620  166.5715 C.3     1  UNL1        0.0521
     32 C         142.7970  140.0195  165.5199 C.ar    1  UNL1        0.0593
     33 C         142.4649  139.7114  164.0899 C.ar    1  UNL1        0.0147
     34 C         142.6244  140.7690  163.0382 C.ar    1  UNL1        0.0028
     35 C         143.1162  142.1348  163.4166 C.ar    1  UNL1        0.0206
     36 C         143.2757  143.1924  162.3649 C.ar    1  UNL1        0.0374
     37 C         143.7674  144.5581  162.7431 C.ar    1  UNL1        0.0031
     38 C         144.0995  144.8662  164.1731 C.ar    1  UNL1        0.0016
     39 C         143.9400  143.8086  165.2248 C.ar    1  UNL1        0.0191
     40 C         143.4482  142.4428  164.8464 C.ar    1  UNL1        0.0810
     41 N         143.2887  141.3852  165.8981 N.ar    1  UNL1       -0.2497
@<TRIPOS>BOND
     1    31    32    1
     2    32    33   ar
     3    33    34   ar
     4    34    35   ar
     5    35    36   ar
     6    36    25    1
     7    25    26   ar
     8    26    27   ar
     9    27    28   ar
    10    28    24    1
    11    24    23    1
    12    23    22    1
    13    22     1    1
    14     1     2    1
    15     1     3    1
    16     3     4    1
    17     4     5    1
    18     5     6    1
    19     6     7   ar
    20     7     8   ar
    21     8     9   ar
    22     9    10   ar
    23    10    18    1
    24    18    19    1
    25    18    20    1
    26    18    21    1
    27    10    11   ar
    28    11    12   ar
    29    12    13   ar
    30    13    14    1
    31    13    15   ar
    32    15    16    1
    33    16    17    1
    34    28    29   ar
    35    29    30    1
    36    36    37   ar
    37    37    38   ar
    38    38    39   ar
    39    39    40   ar
    40    40    41   ar
    41    41    32   ar
    42    40    35   ar
    43    29    25   ar
    44    17     3    1
    45    15     6   ar
    46    12     8   ar
@<TRIPOS>MOLECULE
*****
 41 46 0 0 0
SMALL
GASTEIGER

@<TRIPOS>ATOM
      1 C         143.1251  141.2601  169.4461 C.3     1  UNL1        0.0584
      2 C         143.9227  142.4453  169.9032 C.3     1  UNL1        0.0174
      3 N         143.0830  140.9005  167.9905 N.3     1  UNL1       -0.2733
      4 C         142.8306  139.4538  167.6846 C.3     1  UNL1        0.0768
      5 C         142.7318  138.7844  166.3458 C.3     1  UNL1        0.0434
      6 C         142.8609  139.3963  164.9825 C.ar    1  UNL1       -0.0233
      7 C         142.6946  138.3686  163.9026 C.ar    1  UNL1        0.0178
      8 C         142.7881  138.7733  162.4612 C.ar    1  UNL1        0.1181
      9 N         142.6678  137.9886  161.1886 N.ar    1  UNL1       -0.2050
     10 C         142.8533  138.9361  160.0405 C.ar    1  UNL1        0.3031
     11 O         143.0882  140.3063  160.6037 O.2     1  UNL1       -0.4321
     12 C         143.0479  140.2057  162.0997 C.ar    1  UNL1        0.1603
     13 C         143.2143  141.2334  163.1797 C.ar    1  UNL1        0.0101
     14 C         143.4741  142.6658  162.8182 C.3     1  UNL1        0.0339
     15 C         143.1208  140.8287  164.6210 C.ar    1  UNL1       -0.0256
     16 C         143.3157  142.0030  165.5337 C.3     1  UNL1        0.0431
     17 C         143.2989  142.0349  167.0333 C.3     1  UNL1        0.0768
     18 C         142.8112  138.5763  158.5849 C.3     1  UNL1        0.4696
     19 F         142.7691  138.2167  157.1293 F       1  UNL1       -0.1619
     20 F         142.7152  140.0302  158.2284 F       1  UNL1       -0.1619
     21 F         142.9071  137.1225  158.9414 F       1  UNL1       -0.1619
     22 C         142.3694  140.4344  170.4447 C.3     1  UNL1        0.0280
     23 C         141.1615  141.0036  171.1280 C.3     1  UNL1        0.0665
     24 S         139.8022  140.8270  170.5188 S.3     1  UNL1       -0.0756
     25 C         139.6163  141.2861  166.6692 C.ar    1  UNL1        0.1669
     26 N         139.2434  139.8397  166.8069 N.ar    1  UNL1       -0.1282
     27 N         139.2677  139.4917  168.2658 N.ar    1  UNL1       -0.1221
     28 C         139.6556  140.7230  169.0297 C.ar    1  UNL1        0.1932
     29 N         139.8711  141.8320  168.0428 N.ar    1  UNL1       -0.2884
     30 C         140.2710  143.2397  168.3720 C.3     1  UNL1        0.1340
     31 C         139.1611  139.1939  160.1373 C.3     1  UNL1        0.0521
     32 C         139.3000  139.9084  161.4488 C.ar    1  UNL1        0.0593
     33 C         139.1995  139.1424  162.7345 C.ar    1  UNL1        0.0147
     34 C         139.3384  139.8569  164.0461 C.ar    1  UNL1        0.0028
     35 C         139.5779  141.3375  164.0718 C.ar    1  UNL1        0.0206
     36 C         139.7169  142.0521  165.3834 C.ar    1  UNL1        0.0374
     37 C         139.9564  143.5326  165.4092 C.ar    1  UNL1        0.0031
     38 C         140.0569  144.2986  164.1234 C.ar    1  UNL1        0.0016
     39 C         139.9180  143.5840  162.8119 C.ar    1  UNL1        0.0191
     40 C         139.6785  142.1034  162.7861 C.ar    1  UNL1        0.0810
     41 N         139.5395  141.3889  161.4746 N.ar    1  UNL1       -0.2497
@<TRIPOS>BOND
     1    31    32    1
     2    32    33   ar
     3    33    34   ar
     4    34    35   ar
     5    35    36   ar
     6    36    25    1
     7    25    26   ar
     8    26    27   ar
     9    27    28   ar
    10    28    24    1
    11    24    23    1
    12    23    22    1
    13    22     1    1
    14     1     2    1
    15     1     3    1
    16     3     4    1
    17     4     5    1
    18     5     6    1
    19     6     7   ar
    20     7     8   ar
    21     8     9   ar
    22     9    10   ar
    23    10    18    1
    24    18    19    1
    25    18    20    1
    26    18    21    1
    27    10    11   ar
    28    11    12   ar
    29    12    13   ar
    30    13    14    1
    31    13    15   ar
    32    15    16    1
    33    16    17    1
    34    28    29   ar
    35    29    30    1
    36    36    37   ar
    37    37    38   ar
    38    38    39   ar
    39    39    40   ar
    40    40    41   ar
    41    41    32   ar
    42    40    35   ar
    43    29    25   ar
    44    17     3    1
    45    15     6   ar
    46    12     8   ar
@<TRIPOS>MOLECULE
*****
 41 46 0 0 0
SMALL
GASTEIGER

@<TRIPOS>ATOM
      1 C         141.3856  138.1262  159.0868 C.3     1  UNL1        0.0584
      2 C         142.5943  137.7237  158.2949 C.3     1  UNL1        0.0174
      3 N         141.5029  138.3714  160.5620 N.3     1  UNL1       -0.2733
      4 C         142.8636  138.1481  161.1526 C.3     1  UNL1        0.0768
      5 C         143.3015  138.3057  162.5786 C.3     1  UNL1        0.0434
      6 C         142.4869  138.7254  163.7661 C.ar    1  UNL1       -0.0233
      7 C         143.3154  138.7548  165.0162 C.ar    1  UNL1        0.0178
      8 C         142.6902  139.1500  166.3212 C.ar    1  UNL1        0.1181
      9 N         143.2510  139.2701  167.7072 N.ar    1  UNL1       -0.2050
     10 C         142.1439  139.7101  168.6187 C.ar    1  UNL1        0.3031
     11 O         140.8989  139.8619  167.7960 O.2     1  UNL1       -0.4321
     12 C         141.2365  139.5158  166.3761 C.ar    1  UNL1        0.1603
     13 C         140.4080  139.4864  165.1260 C.ar    1  UNL1        0.0101
     14 C         138.9544  139.8522  165.1808 C.3     1  UNL1        0.0339
     15 C         141.0332  139.0912  163.8210 C.ar    1  UNL1       -0.0256
     16 C         140.0351  139.1276  162.7019 C.3     1  UNL1        0.0431
     17 C         140.2442  138.8072  161.2515 C.3     1  UNL1        0.0768
     18 C         142.2613  139.9552  170.0939 C.3     1  UNL1        0.4696
     19 F         142.3788  140.2004  171.5690 F       1  UNL1       -0.1619
     20 F         143.5062  140.7590  169.8612 F       1  UNL1       -0.1619
     21 F         141.0164  139.1515  170.3266 F       1  UNL1       -0.1619
     22 C         140.0596  138.2836  158.4035 C.3     1  UNL1        0.0280
     23 C         139.9506  139.1153  157.1599 C.3     1  UNL1        0.0665
     24 S         139.3815  140.5013  157.2320 S.3     1  UNL1       -0.0756
     25 C         139.7460  142.5133  160.5311 C.ar    1  UNL1        0.1669
     26 N         140.8786  143.0741  159.7230 N.ar    1  UNL1       -0.1282
     27 N         140.8798  142.3886  158.3888 N.ar    1  UNL1       -0.1221
     28 C         139.7481  141.4042  158.3723 C.ar    1  UNL1        0.1932
     29 N         139.0475  141.4813  159.6964 N.ar    1  UNL1       -0.2884
     30 C         137.8571  140.6689  160.1125 C.3     1  UNL1        0.1340
     31 C         143.4917  142.7195  166.2912 C.3     1  UNL1        0.0521
     32 C         142.4631  142.7681  165.2005 C.ar    1  UNL1        0.0593
     33 C         142.8321  142.3672  163.8030 C.ar    1  UNL1        0.0147
     34 C         141.8034  142.4159  162.7123 C.ar    1  UNL1        0.0028
     35 C         140.4057  142.8655  163.0193 C.ar    1  UNL1        0.0206
     36 C         139.3770  142.9142  161.9286 C.ar    1  UNL1        0.0374
     37 C         137.9792  143.3637  162.2355 C.ar    1  UNL1        0.0031
     38 C         137.6101  143.7646  163.6330 C.ar    1  UNL1        0.0016
     39 C         138.6388  143.7160  164.7237 C.ar    1  UNL1        0.0191
     40 C         140.0366  143.2664  164.4167 C.ar    1  UNL1        0.0810
     41 N         141.0653  143.2177  165.5074 N.ar    1  UNL1       -0.2497
@<TRIPOS>BOND
     1    31    32    1
     2    32    33   ar
     3    33    34   ar
     4    34    35   ar
     5    35    36   ar
     6    36    25    1
     7    25    26   ar
     8    26    27   ar
     9    27    28   ar
    10    28    24    1
    11    24    23    1
    12    23    22    1
    13    22     1    1
    14     1     2    1
    15     1     3    1
    16     3     4    1
    17     4     5    1
    18     5     6    1
    19     6     7   ar
    20     7     8   ar
    21     8     9   ar
    22     9    10   ar
    23    10    18    1
    24    18    19    1
    25    18    20    1
    26    18    21    1
    27    10    11   ar
    28    11    12   ar
    29    12    13   ar
    30    13    14    1
    31    13    15   ar
    32    15    16    1
    33    16    17    1
    34    28    29   ar
    35    29    30    1
    36    36    37   ar
    37    37    38   ar
    38    38    39   ar
    39    39    40   ar
    40    40    41   ar
    41    41    32   ar
    42    40    35   ar
    43    29    25   ar
    44    17     3    1
    45    15     6   ar
    46    12     8   ar
@<TRIPOS>MOLECULE
*****
 41 46 0 0 0
SMALL
GASTEIGER

@<TRIPOS>ATOM
      1 C         139.4471  139.1672  159.2600 C.3     1  UNL1        0.0584
      2 C         140.0872  138.2300  158.2792 C.3     1  UNL1        0.0174
      3 N         139.9165  139.1976  160.6843 N.3     1  UNL1       -0.2733
      4 C         141.3938  139.0336  160.8863 C.3     1  UNL1        0.0768
      5 C         142.1661  139.0194  162.1722 C.3     1  UNL1        0.0434
      6 C         141.6518  139.1658  163.5735 C.ar    1  UNL1       -0.0233
      7 C         142.7652  139.0938  164.5762 C.ar    1  UNL1        0.0178
      8 C         142.4650  139.2185  166.0406 C.ar    1  UNL1        0.1181
      9 N         143.3483  139.1866  167.2525 N.ar    1  UNL1       -0.2050
     10 C         142.4806  139.3637  168.4632 C.ar    1  UNL1        0.3031
     11 O         141.0612  139.5049  167.9996 O.2     1  UNL1       -0.4321
     12 C         141.0515  139.4152  166.5024 C.ar    1  UNL1        0.1603
     13 C         139.9381  139.4872  165.4997 C.ar    1  UNL1        0.0101
     14 C         138.5246  139.6839  165.9614 C.3     1  UNL1        0.0339
     15 C         140.2383  139.3626  164.0353 C.ar    1  UNL1       -0.0256
     16 C         138.9899  139.4614  163.2097 C.3     1  UNL1        0.0431
     17 C         138.8468  139.3880  161.7183 C.3     1  UNL1        0.0768
     18 C         142.9502  139.3941  169.8875 C.3     1  UNL1        0.4696
     19 F         143.4197  139.4245  171.3118 F       1  UNL1       -0.1619
     20 F         143.3389  140.8341  169.7287 F       1  UNL1       -0.1619
     21 F         142.5615  137.9541  170.0465 F       1  UNL1       -0.1619
     22 C         138.3376  140.0740  158.8165 C.3     1  UNL1        0.0280
     23 C         138.6376  141.2519  157.9376 C.3     1  UNL1        0.0665
     24 S         138.7795  142.6190  158.5381 S.3     1  UNL1       -0.0756
     25 C         140.5385  142.8348  161.9913 C.ar    1  UNL1        0.1669
     26 N         139.1239  143.1649  162.3655 N.ar    1  UNL1       -0.1282
     27 N         138.2928  143.1242  161.1174 N.ar    1  UNL1       -0.1221
     28 C         139.1937  142.7690  159.9719 C.ar    1  UNL1        0.1932
     29 N         140.5816  142.5901  160.5121 N.ar    1  UNL1       -0.2884
     30 C         141.7990  142.2298  159.7131 C.3     1  UNL1        0.1340
     31 C         140.7963  142.9385  168.8596 C.3     1  UNL1        0.0521
     32 C         141.0235  142.8944  167.3776 C.ar    1  UNL1        0.0593
     33 C         139.8569  142.9671  166.4375 C.ar    1  UNL1        0.0147
     34 C         140.0840  142.9230  164.9554 C.ar    1  UNL1        0.0028
     35 C         141.4779  142.8062  164.4135 C.ar    1  UNL1        0.0206
     36 C         141.7051  142.7621  162.9314 C.ar    1  UNL1        0.0374
     37 C         143.0989  142.6453  162.3894 C.ar    1  UNL1        0.0031
     38 C         144.2655  142.5726  163.3295 C.ar    1  UNL1        0.0016
     39 C         144.0383  142.6167  164.8116 C.ar    1  UNL1        0.0191
     40 C         142.6444  142.7335  165.3535 C.ar    1  UNL1        0.0810
     41 N         142.4172  142.7776  166.8356 N.ar    1  UNL1       -0.2497
@<TRIPOS>BOND
     1    31    32    1
     2    32    33   ar
     3    33    34   ar
     4    34    35   ar
     5    35    36   ar
     6    36    25    1
     7    25    26   ar
     8    26    27   ar
     9    27    28   ar
    10    28    24    1
    11    24    23    1
    12    23    22    1
    13    22     1    1
    14     1     2    1
    15     1     3    1
    16     3     4    1
    17     4     5    1
    18     5     6    1
    19     6     7   ar
    20     7     8   ar
    21     8     9   ar
    22     9    10   ar
    23    10    18    1
    24    18    19    1
    25    18    20    1
    26    18    21    1
    27    10    11   ar
    28    11    12   ar
    29    12    13   ar
    30    13    14    1
    31    13    15   ar
    32    15    16    1
    33    16    17    1
    34    28    29   ar
    35    29    30    1
    36    36    37   ar
    37    37    38   ar
    38    38    39   ar
    39    39    40   ar
    40    40    41   ar
    41    41    32   ar
    42    40    35   ar
    43    29    25   ar
    44    17     3    1
    45    15     6   ar
    46    12     8   ar
@<TRIPOS>MOLECULE
*****
 41 46 0 0 0
SMALL
GASTEIGER

@<TRIPOS>ATOM
      1 C         140.2789  145.7308  160.7227 C.3     1  UNL1        0.0584
      2 C         139.2887  146.8573  160.7033 C.3     1  UNL1        0.0174
      3 N         140.5980  145.0349  162.0126 N.3     1  UNL1       -0.2733
      4 C         139.4549  144.8874  162.9726 C.3     1  UNL1        0.0768
      5 C         139.4495  144.2471  164.3292 C.3     1  UNL1        0.0434
      6 C         140.5858  143.5962  165.0605 C.ar    1  UNL1       -0.0233
      7 C         140.1509  143.0792  166.3998 C.ar    1  UNL1        0.0178
      8 C         141.1384  142.3908  167.2948 C.ar    1  UNL1        0.1181
      9 N         141.0024  141.7819  168.6588 N.ar    1  UNL1       -0.2050
     10 C         142.3407  141.2342  169.0575 C.ar    1  UNL1        0.3031
     11 O         143.3038  141.5045  167.9399 O.2     1  UNL1       -0.4321
     12 C         142.5609  142.2193  166.8505 C.ar    1  UNL1        0.1603
     13 C         142.9957  142.7363  165.5112 C.ar    1  UNL1        0.0101
     14 C         144.4180  142.5649  165.0668 C.3     1  UNL1        0.0339
     15 C         142.0082  143.4247  164.6162 C.ar    1  UNL1       -0.0256
     16 C         142.6456  143.8619  163.3307 C.3     1  UNL1        0.0431
     17 C         142.0179  144.5785  162.1720 C.3     1  UNL1        0.0768
     18 C         142.6597  140.5382  170.3475 C.3     1  UNL1        0.4696
     19 F         142.9788  139.8424  171.6374 F       1  UNL1       -0.1619
     20 F         142.5121  141.8364  171.0844 F       1  UNL1       -0.1619
     21 F         142.8074  139.2401  169.6107 F       1  UNL1       -0.1619
     22 C         140.9500  145.3002  159.4522 C.3     1  UNL1        0.0280
     23 C         140.1466  144.6598  158.3593 C.3     1  UNL1        0.0665
     24 S         139.8380  143.1930  158.4161 S.3     1  UNL1       -0.0756
     25 C         140.3571  141.2093  161.7116 C.ar    1  UNL1        0.1669
     26 N         141.6858  141.0140  161.0434 N.ar    1  UNL1       -0.1282
     27 N         141.6531  141.7334  159.7276 N.ar    1  UNL1       -0.1221
     28 C         140.3041  142.3732  159.5825 C.ar    1  UNL1        0.1932
     29 N         139.5033  142.0493  160.8088 N.ar    1  UNL1       -0.2884
     30 C         138.0955  142.4884  161.0838 C.3     1  UNL1        0.1340
     31 C         144.0223  137.9679  166.5397 C.3     1  UNL1        0.0521
     32 C         143.0051  138.6411  165.6668 C.ar    1  UNL1        0.0593
     33 C         143.4090  139.1896  164.3303 C.ar    1  UNL1        0.0147
     34 C         142.3917  139.8628  163.4574 C.ar    1  UNL1        0.0028
     35 C         140.9706  139.9875  163.9210 C.ar    1  UNL1        0.0206
     36 C         139.9533  140.6608  163.0481 C.ar    1  UNL1        0.0374
     37 C         138.5322  140.7855  163.5116 C.ar    1  UNL1        0.0031
     38 C         138.1283  140.2370  164.8480 C.ar    1  UNL1        0.0016
     39 C         139.1456  139.5638  165.7209 C.ar    1  UNL1        0.0191
     40 C         140.5667  139.4391  165.2574 C.ar    1  UNL1        0.0810
     41 N         141.5840  138.7658  166.1303 N.ar    1  UNL1       -0.2497
@<TRIPOS>BOND
     1    31    32    1
     2    32    33   ar
     3    33    34   ar
     4    34    35   ar
     5    35    36   ar
     6    36    25    1
     7    25    26   ar
     8    26    27   ar
     9    27    28   ar
    10    28    24    1
    11    24    23    1
    12    23    22    1
    13    22     1    1
    14     1     2    1
    15     1     3    1
    16     3     4    1
    17     4     5    1
    18     5     6    1
    19     6     7   ar
    20     7     8   ar
    21     8     9   ar
    22     9    10   ar
    23    10    18    1
    24    18    19    1
    25    18    20    1
    26    18    21    1
    27    10    11   ar
    28    11    12   ar
    29    12    13   ar
    30    13    14    1
    31    13    15   ar
    32    15    16    1
    33    16    17    1
    34    28    29   ar
    35    29    30    1
    36    36    37   ar
    37    37    38   ar
    38    38    39   ar
    39    39    40   ar
    40    40    41   ar
    41    41    32   ar
    42    40    35   ar
    43    29    25   ar
    44    17     3    1
    45    15     6   ar
    46    12     8   ar
@<TRIPOS>MOLECULE
*****
 41 46 0 0 0
SMALL
GASTEIGER

@<TRIPOS>ATOM
      1 C         141.3772  144.5856  159.3053 C.3     1  UNL1        0.0584
      2 C         140.3379  145.5766  158.8722 C.3     1  UNL1        0.0174
      3 N         141.4598  144.1651  160.7428 N.3     1  UNL1       -0.2733
      4 C         140.1467  144.0032  161.4498 C.3     1  UNL1        0.0768
      5 C         139.8940  143.5982  162.8720 C.3     1  UNL1        0.0434
      6 C         140.8918  143.2553  163.9380 C.ar    1  UNL1       -0.0233
      7 C         140.2147  142.9025  165.2293 C.ar    1  UNL1        0.0178
      8 C         141.0346  142.5270  166.4279 C.ar    1  UNL1        0.1181
      9 N         140.6505  142.1341  167.8236 N.ar    1  UNL1       -0.2050
     10 C         141.9101  141.8685  168.5937 C.ar    1  UNL1        0.3031
     11 O         143.0726  142.0973  167.6739 O.2     1  UNL1       -0.4321
     12 C         142.5316  142.5042  166.3354 C.ar    1  UNL1        0.1603
     13 C         143.2087  142.8570  165.0442 C.ar    1  UNL1        0.0101
     14 C         144.7056  142.8343  164.9517 C.3     1  UNL1        0.0339
     15 C         142.3888  143.2326  163.8456 C.ar    1  UNL1       -0.0256
     16 C         143.2577  143.5472  162.6640 C.3     1  UNL1        0.0431
     17 C         142.8441  143.9622  161.2831 C.3     1  UNL1        0.0768
     18 C         141.9925  141.4480  170.0312 C.3     1  UNL1        0.4696
     19 F         142.0748  141.0275  171.4686 F       1  UNL1       -0.1619
     20 F         140.5159  141.6663  170.1797 F       1  UNL1       -0.1619
     21 F         143.4690  141.2297  169.8828 F       1  UNL1       -0.1619
     22 C         142.3341  144.0151  158.3009 C.3     1  UNL1        0.0280
     23 C         141.8664  142.9759  157.3255 C.3     1  UNL1        0.0665
     24 S         141.9514  141.5212  157.6811 S.3     1  UNL1       -0.0756
     25 C         141.4790  140.2737  161.3261 C.ar    1  UNL1        0.1669
     26 N         140.0545  140.3734  160.8670 N.ar    1  UNL1       -0.1282
     27 N         140.0581  140.8528  159.4456 N.ar    1  UNL1       -0.1221
     28 C         141.4848  141.0495  159.0263 C.ar    1  UNL1        0.1932
     29 N         142.3630  140.6915  160.1886 N.ar    1  UNL1       -0.2884
     30 C         143.8620  140.7425  160.2095 C.3     1  UNL1        0.1340
     31 C         137.9277  138.8501  167.0367 C.3     1  UNL1        0.0521
     32 C         138.9304  139.0960  165.9486 C.ar    1  UNL1        0.0593
     33 C         138.4706  139.5362  164.5904 C.ar    1  UNL1        0.0147
     34 C         139.4734  139.7820  163.5023 C.ar    1  UNL1        0.0028
     35 C         140.9361  139.5876  163.7724 C.ar    1  UNL1        0.0206
     36 C         141.9389  139.8335  162.6843 C.ar    1  UNL1        0.0374
     37 C         143.4015  139.6391  162.9544 C.ar    1  UNL1        0.0031
     38 C         143.8613  139.1988  164.3126 C.ar    1  UNL1        0.0016
     39 C         142.8585  138.9530  165.4008 C.ar    1  UNL1        0.0191
     40 C         141.3958  139.1474  165.1306 C.ar    1  UNL1        0.0810
     41 N         140.3930  138.9016  166.2187 N.ar    1  UNL1       -0.2497
@<TRIPOS>BOND
     1    31    32    1
     2    32    33   ar
     3    33    34   ar
     4    34    35   ar
     5    35    36   ar
     6    36    25    1
     7    25    26   ar
     8    26    27   ar
     9    27    28   ar
    10    28    24    1
    11    24    23    1
    12    23    22    1
    13    22     1    1
    14     1     2    1
    15     1     3    1
    16     3     4    1
    17     4     5    1
    18     5     6    1
    19     6     7   ar
    20     7     8   ar
    21     8     9   ar
    22     9    10   ar
    23    10    18    1
    24    18    19    1
    25    18    20    1
    26    18    21    1
    27    10    11   ar
    28    11    12   ar
    29    12    13   ar
    30    13    14    1
    31    13    15   ar
    32    15    16    1
    33    16    17    1
    34    28    29   ar
    35    29    30    1
    36    36    37   ar
    37    37    38   ar
    38    38    39   ar
    39    39    40   ar
    40    40    41   ar
    41    41    32   ar
    42    40    35   ar
    43    29    25   ar
    44    17     3    1
    45    15     6   ar
    46    12     8   ar
@<TRIPOS>MOLECULE
*****
 41 46 0 0 0
SMALL
GASTEIGER

@<TRIPOS>ATOM
      1 C         143.9755  142.4604  158.9118 C.3     1  UNL1        0.0584
      2 C         145.3700  142.5245  158.3630 C.3     1  UNL1        0.0174
      3 N         143.7562  142.2316  160.3779 N.3     1  UNL1       -0.2733
      4 C         142.9317  141.0297  160.7328 C.3     1  UNL1        0.0768
      5 C         142.5377  140.5343  162.0928 C.3     1  UNL1        0.0434
      6 C         142.8710  141.1182  163.4335 C.ar    1  UNL1       -0.0233
      7 C         142.2763  140.3081  164.5472 C.ar    1  UNL1        0.0178
      8 C         142.4911  140.7217  165.9730 C.ar    1  UNL1        0.1181
      9 N         142.0324  140.1259  167.2709 N.ar    1  UNL1       -0.2050
     10 C         142.5584  140.9813  168.3852 C.ar    1  UNL1        0.3031
     11 O         143.3422  142.1057  167.7759 O.2     1  UNL1       -0.4321
     12 C         143.3007  141.9453  166.2852 C.ar    1  UNL1        0.1603
     13 C         143.8954  142.7554  165.1715 C.ar    1  UNL1        0.0101
     14 C         144.7048  143.9790  165.4836 C.3     1  UNL1        0.0339
     15 C         143.6805  142.3418  163.7457 C.ar    1  UNL1       -0.0256
     16 C         144.3567  143.2837  162.7941 C.3     1  UNL1        0.0431
     17 C         144.3904  143.2346  161.2953 C.3     1  UNL1        0.0768
     18 C         142.3391  140.7523  169.8513 C.3     1  UNL1        0.4696
     19 F         142.1197  140.5233  171.3173 F       1  UNL1       -0.1619
     20 F         140.9503  140.2621  169.5669 F       1  UNL1       -0.1619
     21 F         143.7279  141.2425  170.1357 F       1  UNL1       -0.1619
     22 C         142.8002  142.6253  157.9945 C.3     1  UNL1        0.0280
     23 C         142.4931  143.9690  157.4029 C.3     1  UNL1        0.0665
     24 S         141.1222  144.5591  157.5531 S.3     1  UNL1       -0.0756
     25 C         138.9975  143.2810  160.5392 C.ar    1  UNL1        0.1669
     26 N         138.2524  142.6898  159.3793 N.ar    1  UNL1       -0.1282
     27 N         138.9577  143.0966  158.1195 N.ar    1  UNL1       -0.1221
     28 C         140.1386  143.9392  158.5008 C.ar    1  UNL1        0.1932
     29 N         140.1631  144.0532  159.9963 N.ar    1  UNL1       -0.2884
     30 C         141.1757  144.8070  160.8065 C.3     1  UNL1        0.1340
     31 C         138.8718  137.7194  164.5770 C.3     1  UNL1        0.0521
     32 C         138.8138  139.0713  163.9296 C.ar    1  UNL1        0.0593
     33 C         139.1717  139.2252  162.4811 C.ar    1  UNL1        0.0147
     34 C         139.1136  140.5772  161.8338 C.ar    1  UNL1        0.0028
     35 C         138.6976  141.7751  162.6351 C.ar    1  UNL1        0.0206
     36 C         138.6396  143.1270  161.9877 C.ar    1  UNL1        0.0374
     37 C         138.2237  144.3250  162.7889 C.ar    1  UNL1        0.0031
     38 C         137.8658  144.1710  164.2375 C.ar    1  UNL1        0.0016
     39 C         137.9239  142.8191  164.8848 C.ar    1  UNL1        0.0191
     40 C         138.3398  141.6211  164.0835 C.ar    1  UNL1        0.0810
     41 N         138.3979  140.2692  164.7308 N.ar    1  UNL1       -0.2497
@<TRIPOS>BOND
     1    31    32    1
     2    32    33   ar
     3    33    34   ar
     4    34    35   ar
     5    35    36   ar
     6    36    25    1
     7    25    26   ar
     8    26    27   ar
     9    27    28   ar
    10    28    24    1
    11    24    23    1
    12    23    22    1
    13    22     1    1
    14     1     2    1
    15     1     3    1
    16     3     4    1
    17     4     5    1
    18     5     6    1
    19     6     7   ar
    20     7     8   ar
    21     8     9   ar
    22     9    10   ar
    23    10    18    1
    24    18    19    1
    25    18    20    1
    26    18    21    1
    27    10    11   ar
    28    11    12   ar
    29    12    13   ar
    30    13    14    1
    31    13    15   ar
    32    15    16    1
    33    16    17    1
    34    28    29   ar
    35    29    30    1
    36    36    37   ar
    37    37    38   ar
    38    38    39   ar
    39    39    40   ar
    40    40    41   ar
    41    41    32   ar
    42    40    35   ar
    43    29    25   ar
    44    17     3    1
    45    15     6   ar
    46    12     8   ar
