@<TRIPOS>MOLECULE
*****
 23 24 0 0 0
SMALL
GASTEIGER

@<TRIPOS>ATOM
      1 N         139.8214  141.6449  166.0151 N.ar    1  UNL1       -0.2918
      2 C         140.0478  143.0959  166.3204 C.ar    1  UNL1        0.1798
      3 N         139.3600  143.9052  165.2612 N.ar    1  UNL1       -0.2195
      4 C         138.7085  142.9544  164.3012 C.ar    1  UNL1        0.1481
      5 C         137.8925  143.1801  163.0631 C.ar    1  UNL1        0.1480
      6 N         137.6074  144.5771  162.5971 N.pl3   1  UNL1       -0.3413
      7 N         137.3616  142.0089  162.2909 N.ar    1  UNL1       -0.2078
      8 C         137.6468  140.6119  162.7568 C.ar    1  UNL1        0.2015
      9 N         138.4628  140.3862  163.9950 N.ar    1  UNL1       -0.2048
     10 C         138.9937  141.5574  164.7672 C.ar    1  UNL1        0.1674
     11 H         137.9558  145.3458  163.1039 H       1  UNL1        0.1438
     12 H         137.0718  144.7253  161.7844 H       1  UNL1        0.1438
     13 C         140.3329  140.4850  166.8169 C.3     1  UNL1        0.1384
     14 C         138.2170  139.0712  167.3413 C.3     1  UNL1        0.0342
     15 C         139.4369  139.8070  167.8109 C.3     1  UNL1        0.1387
     16 O         139.7608  139.8650  169.2743 O.3     1  UNL1       -0.3426
     17 C         139.5695  141.1436  170.0348 C.3     1  UNL1        0.2577
     18 P         140.6872  141.6938  170.8702 P.3     1  UNL1        0.3665
     19 O         141.8049  142.2441  171.7057 O.2     1  UNL1       -0.2556
     20 O         140.5224  140.5595  171.8378 O.3     1  UNL1       -0.3220
     21 O         140.8520  142.8282  169.9027 O.3     1  UNL1       -0.3220
     22 H         141.1684  140.6505  172.5557 H       1  UNL1        0.2198
     23 H         141.5690  143.4081  170.2035 H       1  UNL1        0.2198
@<TRIPOS>BOND
     1    15    14    1
     2    15    13    1
     3    13     1    1
     4     1     2   ar
     5     2     3   ar
     6     3     4   ar
     7     4     5   ar
     8     5     6    1
     9     5     7   ar
    10     7     8   ar
    11     8     9   ar
    12     9    10   ar
    13    15    16    1
    14    16    17    1
    15    17    18    1
    16    18    19    2
    17    18    20    1
    18    18    21    1
    19    10     1   ar
    20    10     4   ar
    21     6    11    1
    22     6    12    1
    23    20    22    1
    24    21    23    1
@<TRIPOS>MOLECULE
*****
 23 24 0 0 0
SMALL
GASTEIGER

@<TRIPOS>ATOM
      1 N         141.1373  140.4971  167.1852 N.ar    1  UNL1       -0.2918
      2 C         142.2190  139.4980  166.8990 C.ar    1  UNL1        0.1798
      3 N         142.9695  139.2496  168.1738 N.ar    1  UNL1       -0.2195
      4 C         142.3517  140.0952  169.2478 C.ar    1  UNL1        0.1481
      5 C         142.6740  140.2626  170.7031 C.ar    1  UNL1        0.1480
      6 N         143.8063  139.4916  171.3141 N.pl3   1  UNL1       -0.3413
      7 N         141.8639  141.2011  171.5474 N.ar    1  UNL1       -0.2078
      8 C         140.7315  141.9721  170.9364 C.ar    1  UNL1        0.2015
      9 N         140.4093  141.8047  169.4811 N.ar    1  UNL1       -0.2048
     10 C         141.2194  140.8662  168.6368 C.ar    1  UNL1        0.1674
     11 H         144.3380  138.8756  170.7599 H       1  UNL1        0.1438
     12 H         144.0178  139.6015  172.2693 H       1  UNL1        0.1438
     13 C         140.1474  141.0331  166.1938 C.3     1  UNL1        0.1384
     14 C         138.4903  139.1178  166.7735 C.3     1  UNL1        0.0342
     15 C         138.8939  140.2651  165.8954 C.3     1  UNL1        0.1387
     16 O         138.0441  140.6443  164.7190 O.3     1  UNL1       -0.3426
     17 C         137.8576  142.0895  164.3632 C.3     1  UNL1        0.2577
     18 P         137.7611  142.5013  162.9241 P.3     1  UNL1        0.3665
     19 O         137.6646  142.9131  161.4850 O.2     1  UNL1       -0.2556
     20 O         136.8635  141.3313  162.6495 O.3     1  UNL1       -0.3220
     21 O         138.6587  143.6713  163.1987 O.3     1  UNL1       -0.3220
     22 H         136.6112  141.3302  161.7129 H       1  UNL1        0.2198
     23 H         138.7934  144.1745  162.3805 H       1  UNL1        0.2198
@<TRIPOS>BOND
     1    15    14    1
     2    15    13    1
     3    13     1    1
     4     1     2   ar
     5     2     3   ar
     6     3     4   ar
     7     4     5   ar
     8     5     6    1
     9     5     7   ar
    10     7     8   ar
    11     8     9   ar
    12     9    10   ar
    13    15    16    1
    14    16    17    1
    15    17    18    1
    16    18    19    2
    17    18    20    1
    18    18    21    1
    19    10     1   ar
    20    10     4   ar
    21     6    11    1
    22     6    12    1
    23    20    22    1
    24    21    23    1
@<TRIPOS>MOLECULE
*****
 23 24 0 0 0
SMALL
GASTEIGER

@<TRIPOS>ATOM
      1 N         141.8673  140.9055  167.4045 N.ar    1  UNL1       -0.2918
      2 C         142.9532  141.8203  166.9208 C.ar    1  UNL1        0.1798
      3 N         143.3896  142.6727  168.0754 N.ar    1  UNL1       -0.2195
      4 C         142.5734  142.2847  169.2726 C.ar    1  UNL1        0.1481
      5 C         142.5654  142.7848  170.6867 C.ar    1  UNL1        0.1480
      6 N         143.5062  143.8770  171.1013 N.pl3   1  UNL1       -0.3413
      7 N         141.6165  142.1927  171.6862 N.ar    1  UNL1       -0.2078
      8 C         140.6757  141.1005  171.2716 C.ar    1  UNL1        0.2015
      9 N         140.6837  140.6004  169.8575 N.ar    1  UNL1       -0.2048
     10 C         141.6326  141.1925  168.8580 C.ar    1  UNL1        0.1674
     11 H         144.1290  144.2656  170.4453 H       1  UNL1        0.1438
     12 H         143.5010  144.2052  172.0295 H       1  UNL1        0.1438
     13 C         141.1432  139.8831  166.5796 C.3     1  UNL1        0.1384
     14 C         138.6476  139.2264  166.8809 C.3     1  UNL1        0.0342
     15 C         139.6966  140.0836  166.2370 C.3     1  UNL1        0.1387
     16 O         139.2992  141.1414  165.2505 O.3     1  UNL1       -0.3426
     17 C         138.2060  140.8703  164.2598 C.3     1  UNL1        0.2577
     18 P         137.8663  141.8952  163.2186 P.3     1  UNL1        0.3665
     19 O         137.5265  142.9201  162.1774 O.2     1  UNL1       -0.2556
     20 O         139.2120  142.5309  163.4052 O.3     1  UNL1       -0.3220
     21 O         136.5205  141.2595  163.0320 O.3     1  UNL1       -0.3220
     22 H         139.2950  143.2927  162.8106 H       1  UNL1        0.2198
     23 H         136.0233  141.7473  162.3570 H       1  UNL1        0.2198
@<TRIPOS>BOND
     1    15    14    1
     2    15    13    1
     3    13     1    1
     4     1     2   ar
     5     2     3   ar
     6     3     4   ar
     7     4     5   ar
     8     5     6    1
     9     5     7   ar
    10     7     8   ar
    11     8     9   ar
    12     9    10   ar
    13    15    16    1
    14    16    17    1
    15    17    18    1
    16    18    19    2
    17    18    20    1
    18    18    21    1
    19    10     1   ar
    20    10     4   ar
    21     6    11    1
    22     6    12    1
    23    20    22    1
    24    21    23    1
@<TRIPOS>MOLECULE
*****
 23 24 0 0 0
SMALL
GASTEIGER

@<TRIPOS>ATOM
      1 N         139.0246  139.8474  165.5823 N.ar    1  UNL1       -0.2918
      2 C         138.1000  138.7841  166.0966 C.ar    1  UNL1        0.1798
      3 N         138.1333  138.8264  167.5957 N.ar    1  UNL1       -0.2195
      4 C         139.0784  139.9159  168.0078 C.ar    1  UNL1        0.1481
      5 C         139.5086  140.4148  169.3553 C.ar    1  UNL1        0.1480
      6 N         138.9577  139.7838  170.5997 N.pl3   1  UNL1       -0.3413
      7 N         140.4896  141.5448  169.4586 N.ar    1  UNL1       -0.2078
      8 C         141.0405  142.1758  168.2142 C.ar    1  UNL1        0.2015
      9 N         140.6103  141.6768  166.8667 N.ar    1  UNL1       -0.2048
     10 C         139.6293  140.5468  166.7635 C.ar    1  UNL1        0.1674
     11 H         138.3138  139.0422  170.5319 H       1  UNL1        0.1438
     12 H         139.2401  140.1113  171.4841 H       1  UNL1        0.1438
     13 C         139.2967  140.1569  164.1400 C.3     1  UNL1        0.1384
     14 C         137.8871  139.0322  162.2696 C.3     1  UNL1        0.0342
     15 C         138.1644  140.2090  163.1575 C.3     1  UNL1        0.1387
     16 O         137.3095  141.4379  163.0629 O.3     1  UNL1       -0.3426
     17 C         137.7002  142.6822  163.8037 C.3     1  UNL1        0.2577
     18 P         137.9812  143.9476  163.0488 P.3     1  UNL1        0.3665
     19 O         138.2621  145.2129  162.2939 O.2     1  UNL1       -0.2556
     20 O         138.4757  144.5905  164.3106 O.3     1  UNL1       -0.3220
     21 O         137.4866  143.3046  161.7871 O.3     1  UNL1       -0.3220
     22 H         138.7536  145.5006  164.1223 H       1  UNL1        0.2198
     23 H         137.5513  143.9375  161.0548 H       1  UNL1        0.2198
@<TRIPOS>BOND
     1    15    14    1
     2    15    13    1
     3    13     1    1
     4     1     2   ar
     5     2     3   ar
     6     3     4   ar
     7     4     5   ar
     8     5     6    1
     9     5     7   ar
    10     7     8   ar
    11     8     9   ar
    12     9    10   ar
    13    15    16    1
    14    16    17    1
    15    17    18    1
    16    18    19    2
    17    18    20    1
    18    18    21    1
    19    10     1   ar
    20    10     4   ar
    21     6    11    1
    22     6    12    1
    23    20    22    1
    24    21    23    1
@<TRIPOS>MOLECULE
*****
 23 24 0 0 0
SMALL
GASTEIGER

@<TRIPOS>ATOM
      1 N         140.4214  139.6747  165.4436 N.ar    1  UNL1       -0.2918
      2 C         141.9046  139.5379  165.6204 C.ar    1  UNL1        0.1798
      3 N         142.4534  138.8418  164.4104 N.ar    1  UNL1       -0.2195
      4 C         141.3094  138.5484  163.4856 C.ar    1  UNL1        0.1481
      5 C         141.2490  137.8790  162.1447 C.ar    1  UNL1        0.1480
      6 N         142.5049  137.3643  161.5061 N.pl3   1  UNL1       -0.3413
      7 N         139.9327  137.7244  161.4423 N.ar    1  UNL1       -0.2078
      8 C         138.6768  138.2391  162.0808 C.ar    1  UNL1        0.2015
      9 N         138.7372  138.9085  163.4218 N.ar    1  UNL1       -0.2048
     10 C         140.0535  139.0631  164.1242 C.ar    1  UNL1        0.1674
     11 H         143.3689  137.4658  161.9671 H       1  UNL1        0.1438
     12 H         142.4653  136.9249  160.6260 H       1  UNL1        0.1438
     13 C         139.4725  140.3112  166.4154 C.3     1  UNL1        0.1384
     14 C         137.6918  138.4923  166.9359 C.3     1  UNL1        0.0342
     15 C         138.7338  139.4626  167.4076 C.3     1  UNL1        0.1387
     16 O         139.0372  139.5844  168.8716 O.3     1  UNL1       -0.3426
     17 C         140.3966  140.0315  169.3212 C.3     1  UNL1        0.2577
     18 P         140.5800  140.6120  170.6921 P.3     1  UNL1        0.3665
     19 O         140.7633  141.1925  172.0630 O.2     1  UNL1       -0.2556
     20 O         139.7609  139.4979  171.2733 O.3     1  UNL1       -0.3220
     21 O         141.3990  141.7261  170.1108 O.3     1  UNL1       -0.3220
     22 H         139.6961  139.6117  172.2345 H       1  UNL1        0.2198
     23 H         141.6874  142.3201  170.8213 H       1  UNL1        0.2198
@<TRIPOS>BOND
     1    15    14    1
     2    15    13    1
     3    13     1    1
     4     1     2   ar
     5     2     3   ar
     6     3     4   ar
     7     4     5   ar
     8     5     6    1
     9     5     7   ar
    10     7     8   ar
    11     8     9   ar
    12     9    10   ar
    13    15    16    1
    14    16    17    1
    15    17    18    1
    16    18    19    2
    17    18    20    1
    18    18    21    1
    19    10     1   ar
    20    10     4   ar
    21     6    11    1
    22     6    12    1
    23    20    22    1
    24    21    23    1
@<TRIPOS>MOLECULE
*****
 23 24 0 0 0
SMALL
GASTEIGER

@<TRIPOS>ATOM
      1 N         139.2649  139.4625  165.8232 N.ar    1  UNL1       -0.2918
      2 C         139.2724  138.1042  165.1867 C.ar    1  UNL1        0.1798
      3 N         138.6585  138.2278  163.8237 N.ar    1  UNL1       -0.2195
      4 C         138.2715  139.6623  163.6178 C.ar    1  UNL1        0.1481
      5 C         137.6263  140.3723  162.4648 C.ar    1  UNL1        0.1480
      6 N         137.2516  139.6092  161.2289 N.pl3   1  UNL1       -0.3413
      7 N         137.3559  141.8453  162.5475 N.ar    1  UNL1       -0.2078
      8 C         137.7307  142.6084  163.7833 C.ar    1  UNL1        0.2015
      9 N         138.3759  141.8985  164.9364 N.ar    1  UNL1       -0.2048
     10 C         138.6463  140.4254  164.8536 C.ar    1  UNL1        0.1674
     11 H         137.4291  138.6423  161.1747 H       1  UNL1        0.1438
     12 H         136.8281  140.0752  160.4721 H       1  UNL1        0.1438
     13 C         139.7847  139.7987  167.1895 C.3     1  UNL1        0.1384
     14 C         142.2210  139.7708  166.2873 C.3     1  UNL1        0.0342
     15 C         141.2482  140.0583  167.3923 C.3     1  UNL1        0.1387
     16 O         141.7387  140.6052  168.7001 O.3     1  UNL1       -0.3426
     17 C         141.1377  140.1237  169.9872 C.3     1  UNL1        0.2577
     18 P         140.8323  141.1002  171.0840 P.3     1  UNL1        0.3665
     19 O         140.5269  142.0768  172.1809 O.2     1  UNL1       -0.2556
     20 O         142.1230  140.7443  171.7603 O.3     1  UNL1       -0.3220
     21 O         139.5416  141.4562  170.4077 O.3     1  UNL1       -0.3220
     22 H         142.2150  141.2630  172.5748 H       1  UNL1        0.2198
     23 H         139.0772  142.1283  170.9307 H       1  UNL1        0.2198
@<TRIPOS>BOND
     1    15    14    1
     2    15    13    1
     3    13     1    1
     4     1     2   ar
     5     2     3   ar
     6     3     4   ar
     7     4     5   ar
     8     5     6    1
     9     5     7   ar
    10     7     8   ar
    11     8     9   ar
    12     9    10   ar
    13    15    16    1
    14    16    17    1
    15    17    18    1
    16    18    19    2
    17    18    20    1
    18    18    21    1
    19    10     1   ar
    20    10     4   ar
    21     6    11    1
    22     6    12    1
    23    20    22    1
    24    21    23    1
@<TRIPOS>MOLECULE
*****
 23 24 0 0 0
SMALL
GASTEIGER

@<TRIPOS>ATOM
      1 N         140.7764  144.8993  162.0333 N.ar    1  UNL1       -0.2918
      2 C         141.0873  144.8294  160.5675 C.ar    1  UNL1        0.1798
      3 N         142.4300  144.1799  160.4089 N.ar    1  UNL1       -0.2195
      4 C         142.9490  143.8484  161.7767 C.ar    1  UNL1        0.1481
      5 C         144.2202  143.1991  162.2377 C.ar    1  UNL1        0.1480
      6 N         145.2422  142.7545  161.2338 N.pl3   1  UNL1       -0.3413
      7 N         144.4693  142.9943  163.7026 N.ar    1  UNL1       -0.2078
      8 C         143.4473  143.4389  164.7065 C.ar    1  UNL1        0.2015
      9 N         142.1762  144.0882  164.2455 N.ar    1  UNL1       -0.2048
     10 C         141.9270  144.2929  162.7806 C.ar    1  UNL1        0.1674
     11 H         145.0787  142.8888  160.2723 H       1  UNL1        0.1438
     12 H         146.0765  142.3283  161.5363 H       1  UNL1        0.1438
     13 C         139.5332  145.4745  162.6445 C.3     1  UNL1        0.1384
     14 C         138.5008  144.4501  164.7974 C.3     1  UNL1        0.0342
     15 C         138.5334  144.5702  163.3026 C.3     1  UNL1        0.1387
     16 O         137.5664  143.7862  162.4658 O.3     1  UNL1       -0.3426
     17 C         137.9943  142.4925  161.8390 C.3     1  UNL1        0.2577
     18 P         138.0650  141.2445  162.6681 P.3     1  UNL1        0.3665
     19 O         138.1358  139.9965  163.4973 O.2     1  UNL1       -0.2556
     20 O         136.6363  141.4384  163.0819 O.3     1  UNL1       -0.3220
     21 O         139.4937  141.0506  162.2544 O.3     1  UNL1       -0.3220
     22 H         136.3715  140.7193  163.6766 H       1  UNL1        0.2198
     23 H         139.8449  140.2480  162.6708 H       1  UNL1        0.2198
@<TRIPOS>BOND
     1    15    14    1
     2    15    13    1
     3    13     1    1
     4     1     2   ar
     5     2     3   ar
     6     3     4   ar
     7     4     5   ar
     8     5     6    1
     9     5     7   ar
    10     7     8   ar
    11     8     9   ar
    12     9    10   ar
    13    15    16    1
    14    16    17    1
    15    17    18    1
    16    18    19    2
    17    18    20    1
    18    18    21    1
    19    10     1   ar
    20    10     4   ar
    21     6    11    1
    22     6    12    1
    23    20    22    1
    24    21    23    1
@<TRIPOS>MOLECULE
*****
 23 24 0 0 0
SMALL
GASTEIGER

@<TRIPOS>ATOM
      1 N         142.8022  139.9120  165.9253 N.ar    1  UNL1       -0.2918
      2 C         142.2749  138.6064  165.4084 C.ar    1  UNL1        0.1798
      3 N         142.8002  138.4127  164.0168 N.ar    1  UNL1       -0.2195
      4 C         143.6522  139.5986  163.6737 C.ar    1  UNL1        0.1481
      5 C         144.4271  139.9545  162.4396 C.ar    1  UNL1        0.1480
      6 N         144.4258  139.0279  161.2600 N.pl3   1  UNL1       -0.3413
      7 N         145.2031  141.2369  162.3851 N.ar    1  UNL1       -0.2078
      8 C         145.2044  142.1635  163.5647 C.ar    1  UNL1        0.2015
      9 N         144.4296  141.8077  164.7988 N.ar    1  UNL1       -0.2048
     10 C         143.6535  140.5252  164.8533 C.ar    1  UNL1        0.1674
     11 H         143.9164  138.1861  161.2958 H       1  UNL1        0.1438
     12 H         144.9344  139.2614  160.4501 H       1  UNL1        0.1438
     13 C         142.5267  140.5010  167.2771 C.3     1  UNL1        0.1384
     14 C         140.4972  142.0914  166.9576 C.3     1  UNL1        0.0342
     15 C         141.1333  140.9187  167.6433 C.3     1  UNL1        0.1387
     16 O         140.3761  140.1638  168.6953 O.3     1  UNL1       -0.3426
     17 C         140.9654  139.9891  170.0636 C.3     1  UNL1        0.2577
     18 P         140.7803  141.0558  171.1018 P.3     1  UNL1        0.3665
     19 O         140.5953  142.1225  172.1400 O.2     1  UNL1       -0.2556
     20 O         142.1269  140.7298  171.6768 O.3     1  UNL1       -0.3220
     21 O         139.4338  141.3818  170.5268 O.3     1  UNL1       -0.3220
     22 H         142.3043  141.3099  172.4337 H       1  UNL1        0.2198
     23 H         139.0307  142.1024  171.0358 H       1  UNL1        0.2198
@<TRIPOS>BOND
     1    15    14    1
     2    15    13    1
     3    13     1    1
     4     1     2   ar
     5     2     3   ar
     6     3     4   ar
     7     4     5   ar
     8     5     6    1
     9     5     7   ar
    10     7     8   ar
    11     8     9   ar
    12     9    10   ar
    13    15    16    1
    14    16    17    1
    15    17    18    1
    16    18    19    2
    17    18    20    1
    18    18    21    1
    19    10     1   ar
    20    10     4   ar
    21     6    11    1
    22     6    12    1
    23    20    22    1
    24    21    23    1
@<TRIPOS>MOLECULE
*****
 23 24 0 0 0
SMALL
GASTEIGER

@<TRIPOS>ATOM
      1 N         140.4668  139.4101  166.2001 N.ar    1  UNL1       -0.2918
      2 C         138.9769  139.5452  166.3088 C.ar    1  UNL1        0.1798
      3 N         138.3685  138.9888  165.0557 N.ar    1  UNL1       -0.2195
      4 C         139.4823  138.5098  164.1726 C.ar    1  UNL1        0.1481
      5 C         139.4833  137.8701  162.8159 C.ar    1  UNL1        0.1480
      6 N         138.1864  137.6097  162.1086 N.pl3   1  UNL1       -0.3413
      7 N         140.7811  137.4909  162.1664 N.ar    1  UNL1       -0.2078
      8 C         142.0780  137.7513  162.8738 C.ar    1  UNL1        0.2015
      9 N         142.0770  138.3909  164.2305 N.ar    1  UNL1       -0.2048
     10 C         140.7792  138.7702  164.8799 C.ar    1  UNL1        0.1674
     11 H         137.3346  137.8587  162.5349 H       1  UNL1        0.1438
     12 H         138.1870  137.1899  161.2181 H       1  UNL1        0.1438
     13 C         141.4685  139.8396  167.2307 C.3     1  UNL1        0.1384
     14 C         142.5965  141.7895  165.9363 C.3     1  UNL1        0.0342
     15 C         142.0202  141.2343  167.2050 C.3     1  UNL1        0.1387
     16 O         141.9956  142.0736  168.4479 O.3     1  UNL1       -0.3426
     17 C         142.2678  141.4456  169.7826 C.3     1  UNL1        0.2577
     18 P         141.4160  141.7990  170.9656 P.3     1  UNL1        0.3665
     19 O         140.5643  142.1524  172.1486 O.2     1  UNL1       -0.2556
     20 O         142.1405  140.7782  171.7922 O.3     1  UNL1       -0.3220
     21 O         140.6916  142.8198  170.1391 O.3     1  UNL1       -0.3220
     22 H         141.7773  140.7737  172.6916 H       1  UNL1        0.2198
     23 H         140.0161  143.2553  170.6822 H       1  UNL1        0.2198
@<TRIPOS>BOND
     1    15    14    1
     2    15    13    1
     3    13     1    1
     4     1     2   ar
     5     2     3   ar
     6     3     4   ar
     7     4     5   ar
     8     5     6    1
     9     5     7   ar
    10     7     8   ar
    11     8     9   ar
    12     9    10   ar
    13    15    16    1
    14    16    17    1
    15    17    18    1
    16    18    19    2
    17    18    20    1
    18    18    21    1
    19    10     1   ar
    20    10     4   ar
    21     6    11    1
    22     6    12    1
    23    20    22    1
    24    21    23    1
