@<TRIPOS>MOLECULE
*****
 33 36 0 0 0
SMALL
GASTEIGER

@<TRIPOS>ATOM
      1 C         138.6397  142.9797  164.3843 C.ar    1  UNL1        0.1345
      2 C         138.2985  141.5392  164.6267 C.ar    1  UNL1        0.0487
      3 C         138.9614  140.7892  165.7438 C.ar    1  UNL1        0.0490
      4 C         139.9654  141.4795  166.6186 C.ar    1  UNL1        0.0324
      5 C         140.3066  142.9199  166.3763 C.ar    1  UNL1        0.1015
      6 N         139.6438  143.6701  165.2591 N.ar    1  UNL1       -0.2290
      7 C         140.6283  140.7294  167.7358 C.ar    1  UNL1        0.0049
      8 C         141.9880  140.1294  167.5332 C.ar    1  UNL1        0.0002
      9 C         142.6508  139.3793  168.6503 C.ar    1  UNL1        0.0023
     10 C         141.9538  139.2292  169.9701 C.ar    1  UNL1        0.0296
     11 C         140.5941  139.8291  170.1726 C.ar    1  UNL1        0.1401
     12 F         139.8971  139.6790  171.4924 F       1  UNL1       -0.2042
     13 C         139.9313  140.5792  169.0555 C.ar    1  UNL1        0.0297
     14 N         137.9769  143.7298  163.2672 N.pl3   1  UNL1       -0.2821
     15 H         137.0138  143.9291  163.3115 H       1  UNL1        0.1551
     16 C         140.3905  145.0691  159.7132 C.ar    1  UNL1        0.1683
     17 C         139.6723  143.7527  159.6790 C.ar    1  UNL1        0.1299
     18 N         138.8678  143.3063  160.8637 N.ar    1  UNL1       -0.2251
     19 C         138.7814  144.1762  162.0825 C.ar    1  UNL1        0.1527
     20 C         139.4996  145.4927  162.1167 C.ar    1  UNL1        0.1340
     21 N         140.3041  145.9391  160.9321 N.ar    1  UNL1       -0.2290
     22 N         141.9995  145.9621  157.3439 N.1     1  UNL1       -0.1892
     23 C         141.1950  145.5156  158.5286 C.1     1  UNL1        0.1214
     24 N         138.6202  139.3487  165.9861 N.pl3   1  UNL1       -0.3306
     25 H         137.8951  139.1126  166.6088 H       1  UNL1        0.1469
     26 C         139.3838  138.2680  165.2798 C.3     1  UNL1        0.1184
     27 C         139.3944  138.2142  163.7808 C.3     1  UNL1        0.1503
     28 C         140.6380  137.7957  163.0540 C.3     1  UNL1        0.1003
     29 N         140.6486  137.7419  161.5551 N.3     1  UNL1       -0.2933
     30 C         139.4154  138.1066  160.7828 C.3     1  UNL1        0.1011
     31 C         138.1718  138.5252  161.5095 C.3     1  UNL1        0.1592
     32 O         138.1613  138.5789  163.0086 O.3     1  UNL1       -0.3516
     33 H         140.8854  136.7841  161.2965 H       1  UNL1        0.1234
@<TRIPOS>BOND
     1    22    23    3
     2    23    16    1
     3    16    17   ar
     4    17    18   ar
     5    18    19   ar
     6    19    14    1
     7    14     1    1
     8     1     2   ar
     9     2     3   ar
    10     3    24    1
    11    24    26    1
    12    27    26    1
    13    27    28    1
    14    28    29    1
    15    29    30    1
    16    30    31    1
    17    31    32    1
    18     3     4   ar
    19     4     7    1
    20     7     8   ar
    21     8     9   ar
    22     9    10   ar
    23    10    11   ar
    24    11    12    1
    25    11    13   ar
    26     4     5   ar
    27     5     6   ar
    28    19    20   ar
    29    20    21   ar
    30    21    16   ar
    31     6     1   ar
    32    32    27    1
    33    13     7   ar
    34    14    15    1
    35    24    25    1
    36    29    33    1
@<TRIPOS>MOLECULE
*****
 33 36 0 0 0
SMALL
GASTEIGER

@<TRIPOS>ATOM
      1 C         139.3671  138.3091  164.8652 C.ar    1  UNL1        0.1345
      2 C         140.7717  138.7750  165.1099 C.ar    1  UNL1        0.0487
      3 C         141.0985  139.5530  166.3500 C.ar    1  UNL1        0.0490
      4 C         140.0206  139.8651  167.3454 C.ar    1  UNL1        0.0324
      5 C         138.6160  139.3992  167.1007 C.ar    1  UNL1        0.1015
      6 N         138.2892  138.6212  165.8605 N.ar    1  UNL1       -0.2290
      7 C         140.3474  140.6432  168.5856 C.ar    1  UNL1        0.0049
      8 C         140.7542  139.9234  169.8371 C.ar    1  UNL1        0.0002
      9 C         141.0810  140.7014  171.0772 C.ar    1  UNL1        0.0023
     10 C         141.0010  142.1993  171.0657 C.ar    1  UNL1        0.0296
     11 C         140.5942  142.9190  169.8141 C.ar    1  UNL1        0.1401
     12 F         140.5142  144.4169  169.8027 F       1  UNL1       -0.2042
     13 C         140.2674  142.1410  168.5741 C.ar    1  UNL1        0.0297
     14 N         139.0403  137.5311  163.6251 N.pl3   1  UNL1       -0.2821
     15 H         138.9302  136.5538  163.6717 H       1  UNL1        0.1551
     16 C         138.5631  139.6636  159.6913 C.ar    1  UNL1        0.1683
     17 C         139.5750  138.5653  159.8311 C.ar    1  UNL1        0.1299
     18 N         139.7341  137.8544  161.1423 N.ar    1  UNL1       -0.2251
     19 C         138.8812  138.2419  162.3138 C.ar    1  UNL1        0.1527
     20 C         137.8693  139.3403  162.1740 C.ar    1  UNL1        0.1340
     21 N         137.7102  140.0511  160.8628 N.ar    1  UNL1       -0.2290
     22 N         138.2449  141.0854  157.0688 N.1     1  UNL1       -0.1892
     23 C         138.4040  140.3745  158.3801 C.1     1  UNL1        0.1214
     24 N         142.5032  140.0189  166.5948 N.pl3   1  UNL1       -0.3306
     25 H         143.1461  139.4273  167.0485 H       1  UNL1        0.1469
     26 C         142.9283  141.3864  166.1483 C.3     1  UNL1        0.1184
     27 C         143.7123  141.5513  164.8801 C.3     1  UNL1        0.1503
     28 C         144.5266  140.4095  164.3480 C.3     1  UNL1        0.1003
     29 N         145.3105  140.5744  163.0799 N.3     1  UNL1       -0.2933
     30 C         145.2802  141.8811  162.3438 C.3     1  UNL1        0.1011
     31 C         144.4659  143.0229  162.8760 C.3     1  UNL1        0.1592
     32 O         143.6819  142.8579  164.1442 O.3     1  UNL1       -0.3516
     33 H         144.9739  139.8630  162.4310 H       1  UNL1        0.1234
@<TRIPOS>BOND
     1    22    23    3
     2    23    16    1
     3    16    17   ar
     4    17    18   ar
     5    18    19   ar
     6    19    14    1
     7    14     1    1
     8     1     2   ar
     9     2     3   ar
    10     3    24    1
    11    24    26    1
    12    27    26    1
    13    27    28    1
    14    28    29    1
    15    29    30    1
    16    30    31    1
    17    31    32    1
    18     3     4   ar
    19     4     7    1
    20     7     8   ar
    21     8     9   ar
    22     9    10   ar
    23    10    11   ar
    24    11    12    1
    25    11    13   ar
    26     4     5   ar
    27     5     6   ar
    28    19    20   ar
    29    20    21   ar
    30    21    16   ar
    31     6     1   ar
    32    32    27    1
    33    13     7   ar
    34    14    15    1
    35    24    25    1
    36    29    33    1
@<TRIPOS>MOLECULE
*****
 33 36 0 0 0
SMALL
GASTEIGER

@<TRIPOS>ATOM
      1 C         139.6200  138.3932  164.6502 C.ar    1  UNL1        0.1345
      2 C         140.9928  138.9025  164.9760 C.ar    1  UNL1        0.0487
      3 C         141.2296  139.6584  166.2497 C.ar    1  UNL1        0.0490
      4 C         140.0936  139.9050  167.1978 C.ar    1  UNL1        0.0324
      5 C         138.7209  139.3957  166.8721 C.ar    1  UNL1        0.1015
      6 N         138.4840  138.6398  165.5982 N.ar    1  UNL1       -0.2290
      7 C         140.3305  140.6609  168.4716 C.ar    1  UNL1        0.0049
      8 C         140.6553  139.9194  169.7344 C.ar    1  UNL1        0.0002
      9 C         140.8921  140.6753  171.0081 C.ar    1  UNL1        0.0023
     10 C         140.8041  142.1727  171.0191 C.ar    1  UNL1        0.0296
     11 C         140.4793  142.9142  169.7563 C.ar    1  UNL1        0.1401
     12 F         140.3912  144.4115  169.7673 F       1  UNL1       -0.2042
     13 C         140.2424  142.1583  168.4826 C.ar    1  UNL1        0.0297
     14 N         139.3832  137.6373  163.3764 N.pl3   1  UNL1       -0.2821
     15 H         138.6755  136.9543  163.3336 H       1  UNL1        0.1551
     16 C         141.9077  138.4917  159.7505 C.ar    1  UNL1        0.1683
     17 C         142.4582  137.6557  160.8676 C.ar    1  UNL1        0.1299
     18 N         141.6167  137.3709  162.0763 N.ar    1  UNL1       -0.2251
     19 C         140.2247  137.9221  162.1678 C.ar    1  UNL1        0.1527
     20 C         139.6742  138.7581  161.0507 C.ar    1  UNL1        0.1340
     21 N         140.5157  139.0429  159.8421 N.ar    1  UNL1       -0.2290
     22 N         143.5907  139.0612  157.3333 N.1     1  UNL1       -0.1892
     23 C         142.7492  138.7765  158.5419 C.1     1  UNL1        0.1214
     24 N         142.6024  140.1677  166.5755 N.pl3   1  UNL1       -0.3306
     25 H         143.2260  139.6069  167.0911 H       1  UNL1        0.1469
     26 C         143.0250  141.5316  166.1157 C.3     1  UNL1        0.1184
     27 C         143.7767  141.6892  164.8274 C.3     1  UNL1        0.1503
     28 C         144.5774  140.5443  164.2813 C.3     1  UNL1        0.1003
     29 N         145.3292  140.7019  162.9930 N.3     1  UNL1       -0.2933
     30 C         145.2803  142.0045  162.2506 C.3     1  UNL1        0.1011
     31 C         144.4796  143.1493  162.7966 C.3     1  UNL1        0.1592
     32 O         143.7278  142.9917  164.0851 O.3     1  UNL1       -0.3516
     33 H         144.9763  139.9870  162.3568 H       1  UNL1        0.1234
@<TRIPOS>BOND
     1    22    23    3
     2    23    16    1
     3    16    17   ar
     4    17    18   ar
     5    18    19   ar
     6    19    14    1
     7    14     1    1
     8     1     2   ar
     9     2     3   ar
    10     3    24    1
    11    24    26    1
    12    27    26    1
    13    27    28    1
    14    28    29    1
    15    29    30    1
    16    30    31    1
    17    31    32    1
    18     3     4   ar
    19     4     7    1
    20     7     8   ar
    21     8     9   ar
    22     9    10   ar
    23    10    11   ar
    24    11    12    1
    25    11    13   ar
    26     4     5   ar
    27     5     6   ar
    28    19    20   ar
    29    20    21   ar
    30    21    16   ar
    31     6     1   ar
    32    32    27    1
    33    13     7   ar
    34    14    15    1
    35    24    25    1
    36    29    33    1
@<TRIPOS>MOLECULE
*****
 33 36 0 0 0
SMALL
GASTEIGER

@<TRIPOS>ATOM
      1 C         140.9871  144.7493  163.5234 C.ar    1  UNL1        0.1345
      2 C         142.0681  143.8544  164.0533 C.ar    1  UNL1        0.0487
      3 C         141.8208  143.0232  165.2772 C.ar    1  UNL1        0.0490
      4 C         140.4925  143.0867  165.9712 C.ar    1  UNL1        0.0324
      5 C         139.4115  143.9815  165.4413 C.ar    1  UNL1        0.1015
      6 N         139.6588  144.8128  164.2174 N.ar    1  UNL1       -0.2290
      7 C         140.2452  142.2554  167.1951 C.ar    1  UNL1        0.0049
      8 C         139.7601  140.8428  167.0568 C.ar    1  UNL1        0.0002
      9 C         139.5129  140.0115  168.2806 C.ar    1  UNL1        0.0023
     10 C         139.7508  140.5929  169.6428 C.ar    1  UNL1        0.0296
     11 C         140.2359  142.0055  169.7811 C.ar    1  UNL1        0.1401
     12 F         140.4737  142.5869  171.1432 F       1  UNL1       -0.2042
     13 C         140.4831  142.8368  168.5572 C.ar    1  UNL1        0.0297
     14 N         141.2344  145.5805  162.2996 N.pl3   1  UNL1       -0.2821
     15 H         141.6520  146.4681  162.3835 H       1  UNL1        0.1551
     16 C         140.0676  144.0174  158.2444 C.ar    1  UNL1        0.1683
     17 C         141.2326  144.9523  158.3810 C.ar    1  UNL1        0.1299
     18 N         141.6215  145.4733  159.7328 N.ar    1  UNL1       -0.2251
     19 C         140.8454  145.0595  160.9479 C.ar    1  UNL1        0.1527
     20 C         139.6804  144.1246  160.8112 C.ar    1  UNL1        0.1340
     21 N         139.2915  143.6035  159.4594 N.ar    1  UNL1       -0.2290
     22 N         139.2897  142.9753  155.5409 N.1     1  UNL1       -0.1892
     23 C         139.6786  143.4963  156.8926 C.1     1  UNL1        0.1214
     24 N         142.9018  142.1283  165.8071 N.pl3   1  UNL1       -0.3306
     25 H         142.8701  141.8177  166.7408 H       1  UNL1        0.1469
     26 C         144.0311  141.7067  164.9143 C.3     1  UNL1        0.1184
     27 C         143.8526  140.5521  163.9737 C.3     1  UNL1        0.1503
     28 C         144.6880  140.4608  162.7312 C.3     1  UNL1        0.1003
     29 N         144.5095  139.3062  161.7905 N.3     1  UNL1       -0.2933
     30 C         143.4955  138.2427  162.0923 C.3     1  UNL1        0.1011
     31 C         142.6601  138.3340  163.3348 C.3     1  UNL1        0.1592
     32 O         142.8386  139.4887  164.2755 O.3     1  UNL1       -0.3516
     33 H         145.4139  138.8397  161.7219 H       1  UNL1        0.1234
@<TRIPOS>BOND
     1    22    23    3
     2    23    16    1
     3    16    17   ar
     4    17    18   ar
     5    18    19   ar
     6    19    14    1
     7    14     1    1
     8     1     2   ar
     9     2     3   ar
    10     3    24    1
    11    24    26    1
    12    27    26    1
    13    27    28    1
    14    28    29    1
    15    29    30    1
    16    30    31    1
    17    31    32    1
    18     3     4   ar
    19     4     7    1
    20     7     8   ar
    21     8     9   ar
    22     9    10   ar
    23    10    11   ar
    24    11    12    1
    25    11    13   ar
    26     4     5   ar
    27     5     6   ar
    28    19    20   ar
    29    20    21   ar
    30    21    16   ar
    31     6     1   ar
    32    32    27    1
    33    13     7   ar
    34    14    15    1
    35    24    25    1
    36    29    33    1
@<TRIPOS>MOLECULE
*****
 33 36 0 0 0
SMALL
GASTEIGER

@<TRIPOS>ATOM
      1 C         144.1342  139.8296  164.2993 C.ar    1  UNL1        0.1345
      2 C         143.4640  141.1344  164.6128 C.ar    1  UNL1        0.0487
      3 C         142.7329  141.3093  165.9109 C.ar    1  UNL1        0.0490
      4 C         142.6720  140.1793  166.8955 C.ar    1  UNL1        0.0324
      5 C         143.3422  138.8745  166.5820 C.ar    1  UNL1        0.1015
      6 N         144.0733  138.6996  165.2839 N.ar    1  UNL1       -0.2290
      7 C         141.9409  140.3542  168.1935 C.ar    1  UNL1        0.0049
      8 C         142.6895  140.7662  169.4263 C.ar    1  UNL1        0.0002
      9 C         141.9583  140.9411  170.7243 C.ar    1  UNL1        0.0023
     10 C         140.4786  140.7040  170.7895 C.ar    1  UNL1        0.0296
     11 C         139.7301  140.2919  169.5567 C.ar    1  UNL1        0.1401
     12 F         138.2504  140.0548  169.6219 F       1  UNL1       -0.2042
     13 C         140.4612  140.1171  168.2587 C.ar    1  UNL1        0.0297
     14 N         144.8653  139.6547  163.0013 N.pl3   1  UNL1       -0.2821
     15 H         145.8389  139.7950  162.9620 H       1  UNL1        0.1551
     16 C         142.6082  138.4889  159.2870 C.ar    1  UNL1        0.1683
     17 C         142.8714  139.9359  159.5815 C.ar    1  UNL1        0.1299
     18 N         143.6238  140.3245  160.8196 N.ar    1  UNL1       -0.2251
     19 C         144.1129  139.2661  161.7632 C.ar    1  UNL1        0.1527
     20 C         143.8497  137.8191  161.4687 C.ar    1  UNL1        0.1340
     21 N         143.0973  137.4305  160.2306 N.ar    1  UNL1       -0.2290
     22 N         141.1034  137.7117  156.8108 N.1     1  UNL1       -0.1892
     23 C         141.8558  138.1003  158.0489 C.1     1  UNL1        0.1214
     24 N         142.0627  142.6142  166.2243 N.pl3   1  UNL1       -0.3306
     25 H         142.5288  143.2884  166.7698 H       1  UNL1        0.1469
     26 C         140.6825  142.8918  165.7067 C.3     1  UNL1        0.1184
     27 C         140.4848  143.8646  164.5823 C.3     1  UNL1        0.1503
     28 C         141.6268  144.7216  164.1224 C.3     1  UNL1        0.1003
     29 N         141.4291  145.6944  162.9979 N.3     1  UNL1       -0.2933
     30 C         140.0894  145.8104  162.3333 C.3     1  UNL1        0.1011
     31 C         138.9474  144.9534  162.7932 C.3     1  UNL1        0.1592
     32 O         139.1451  143.9805  163.9177 O.3     1  UNL1       -0.3516
     33 H         142.0981  145.4431  162.2701 H       1  UNL1        0.1234
@<TRIPOS>BOND
     1    22    23    3
     2    23    16    1
     3    16    17   ar
     4    17    18   ar
     5    18    19   ar
     6    19    14    1
     7    14     1    1
     8     1     2   ar
     9     2     3   ar
    10     3    24    1
    11    24    26    1
    12    27    26    1
    13    27    28    1
    14    28    29    1
    15    29    30    1
    16    30    31    1
    17    31    32    1
    18     3     4   ar
    19     4     7    1
    20     7     8   ar
    21     8     9   ar
    22     9    10   ar
    23    10    11   ar
    24    11    12    1
    25    11    13   ar
    26     4     5   ar
    27     5     6   ar
    28    19    20   ar
    29    20    21   ar
    30    21    16   ar
    31     6     1   ar
    32    32    27    1
    33    13     7   ar
    34    14    15    1
    35    24    25    1
    36    29    33    1
@<TRIPOS>MOLECULE
*****
 33 36 0 0 0
SMALL
GASTEIGER

@<TRIPOS>ATOM
      1 C         141.7877  138.3570  164.0824 C.ar    1  UNL1        0.1345
      2 C         140.4262  138.9848  164.1302 C.ar    1  UNL1        0.0487
      3 C         139.9809  139.7175  165.3610 C.ar    1  UNL1        0.0490
      4 C         140.8971  139.8224  166.5440 C.ar    1  UNL1        0.0324
      5 C         142.2586  139.1946  166.4962 C.ar    1  UNL1        0.1015
      6 N         142.7039  138.4619  165.2654 N.ar    1  UNL1       -0.2290
      7 C         140.4518  140.5551  167.7749 C.ar    1  UNL1        0.0049
      8 C         139.5334  139.8868  168.7545 C.ar    1  UNL1        0.0002
      9 C         139.0881  140.6195  169.9853 C.ar    1  UNL1        0.0023
     10 C         139.5613  142.0206  170.2364 C.ar    1  UNL1        0.0296
     11 C         140.4797  142.6889  169.2567 C.ar    1  UNL1        0.1401
     12 F         140.9529  144.0900  169.5079 F       1  UNL1       -0.2042
     13 C         140.9250  141.9562  168.0260 C.ar    1  UNL1        0.0297
     14 N         142.2329  137.6243  162.8516 N.pl3   1  UNL1       -0.2821
     15 H         142.1931  136.6411  162.8226 H       1  UNL1        0.1551
     16 C         143.7504  139.9206  159.2915 C.ar    1  UNL1        0.1683
     17 C         143.6895  140.5787  160.6380 C.ar    1  UNL1        0.1299
     18 N         143.1837  139.8133  161.8247 N.ar    1  UNL1       -0.2251
     19 C         142.7387  138.3898  161.6649 C.ar    1  UNL1        0.1527
     20 C         142.7997  137.7317  160.3184 C.ar    1  UNL1        0.1340
     21 N         143.3055  138.4971  159.1317 N.ar    1  UNL1       -0.2290
     22 N         144.7622  141.4514  156.9181 N.1     1  UNL1       -0.1892
     23 C         144.2563  140.6860  158.1048 C.1     1  UNL1        0.1214
     24 N         138.6194  140.3453  165.4088 N.pl3   1  UNL1       -0.3306
     25 H         138.0981  140.3274  166.2437 H       1  UNL1        0.1469
     26 C         138.0522  141.0005  164.1844 C.3     1  UNL1        0.1184
     27 C         138.4766  142.3903  163.8126 C.3     1  UNL1        0.1503
     28 C         137.6970  143.1647  162.7916 C.3     1  UNL1        0.1003
     29 N         138.1214  144.5545  162.4198 N.3     1  UNL1       -0.2933
     30 C         139.3254  145.1700  163.0691 C.3     1  UNL1        0.1011
     31 C         140.1050  144.3956  164.0901 C.3     1  UNL1        0.1592
     32 O         139.6806  143.0057  164.4619 O.3     1  UNL1       -0.3516
     33 H         137.3318  145.1676  162.6225 H       1  UNL1        0.1234
@<TRIPOS>BOND
     1    22    23    3
     2    23    16    1
     3    16    17   ar
     4    17    18   ar
     5    18    19   ar
     6    19    14    1
     7    14     1    1
     8     1     2   ar
     9     2     3   ar
    10     3    24    1
    11    24    26    1
    12    27    26    1
    13    27    28    1
    14    28    29    1
    15    29    30    1
    16    30    31    1
    17    31    32    1
    18     3     4   ar
    19     4     7    1
    20     7     8   ar
    21     8     9   ar
    22     9    10   ar
    23    10    11   ar
    24    11    12    1
    25    11    13   ar
    26     4     5   ar
    27     5     6   ar
    28    19    20   ar
    29    20    21   ar
    30    21    16   ar
    31     6     1   ar
    32    32    27    1
    33    13     7   ar
    34    14    15    1
    35    24    25    1
    36    29    33    1
@<TRIPOS>MOLECULE
*****
 33 36 0 0 0
SMALL
GASTEIGER

@<TRIPOS>ATOM
      1 C         139.2971  139.1358  164.9554 C.ar    1  UNL1        0.1345
      2 C         140.3708  140.1226  164.6038 C.ar    1  UNL1        0.0487
      3 C         140.9765  140.9843  165.6717 C.ar    1  UNL1        0.0490
      4 C         140.5086  140.8593  167.0914 C.ar    1  UNL1        0.0324
      5 C         139.4350  139.8726  167.4431 C.ar    1  UNL1        0.1015
      6 N         138.8292  139.0108  166.3751 N.ar    1  UNL1       -0.2290
      7 C         141.1143  141.7211  168.1593 C.ar    1  UNL1        0.0049
      8 C         140.2858  142.7749  168.8323 C.ar    1  UNL1        0.0002
      9 C         140.8916  143.6366  169.9002 C.ar    1  UNL1        0.0023
     10 C         142.3258  143.4445  170.2952 C.ar    1  UNL1        0.0296
     11 C         143.1543  142.3906  169.6222 C.ar    1  UNL1        0.1401
     12 F         144.5886  142.1985  170.0171 F       1  UNL1       -0.2042
     13 C         142.5486  141.5289  168.5543 C.ar    1  UNL1        0.0297
     14 N         138.6915  138.2741  163.8875 N.pl3   1  UNL1       -0.2821
     15 H         138.2820  137.4108  164.1249 H       1  UNL1        0.1551
     16 C         138.7457  139.6348  159.5985 C.ar    1  UNL1        0.1683
     17 C         139.6835  138.5570  160.0553 C.ar    1  UNL1        0.1299
     18 N         139.6654  138.1034  161.4850 N.ar    1  UNL1       -0.2251
     19 C         138.7095  138.7277  162.4578 C.ar    1  UNL1        0.1527
     20 C         137.7717  139.8055  162.0010 C.ar    1  UNL1        0.1340
     21 N         137.7898  140.2591  160.5714 N.ar    1  UNL1       -0.2290
     22 N         138.7819  140.5420  156.7392 N.1     1  UNL1       -0.1892
     23 C         138.7638  140.0884  158.1688 C.1     1  UNL1        0.1214
     24 N         142.0502  141.9711  165.3200 N.pl3   1  UNL1       -0.3306
     25 H         142.6250  142.3456  166.0261 H       1  UNL1        0.1469
     26 C         142.2480  142.3872  163.8925 C.3     1  UNL1        0.1184
     27 C         141.4461  143.5199  163.3235 C.3     1  UNL1        0.1503
     28 C         141.8726  144.9372  163.5668 C.3     1  UNL1        0.1003
     29 N         141.0706  146.0699  162.9977 N.3     1  UNL1       -0.2933
     30 C         139.8422  145.7853  162.1853 C.3     1  UNL1        0.1011
     31 C         139.4156  144.3679  161.9421 C.3     1  UNL1        0.1592
     32 O         140.2176  143.2352  162.5112 O.3     1  UNL1       -0.3516
     33 H         141.7006  146.6060  162.4009 H       1  UNL1        0.1234
@<TRIPOS>BOND
     1    22    23    3
     2    23    16    1
     3    16    17   ar
     4    17    18   ar
     5    18    19   ar
     6    19    14    1
     7    14     1    1
     8     1     2   ar
     9     2     3   ar
    10     3    24    1
    11    24    26    1
    12    27    26    1
    13    27    28    1
    14    28    29    1
    15    29    30    1
    16    30    31    1
    17    31    32    1
    18     3     4   ar
    19     4     7    1
    20     7     8   ar
    21     8     9   ar
    22     9    10   ar
    23    10    11   ar
    24    11    12    1
    25    11    13   ar
    26     4     5   ar
    27     5     6   ar
    28    19    20   ar
    29    20    21   ar
    30    21    16   ar
    31     6     1   ar
    32    32    27    1
    33    13     7   ar
    34    14    15    1
    35    24    25    1
    36    29    33    1
@<TRIPOS>MOLECULE
*****
 33 36 0 0 0
SMALL
GASTEIGER

@<TRIPOS>ATOM
      1 C         139.1253  139.1507  164.9084 C.ar    1  UNL1        0.1345
      2 C         140.0717  140.2521  164.5324 C.ar    1  UNL1        0.0487
      3 C         140.7151  141.0855  165.6008 C.ar    1  UNL1        0.0490
      4 C         140.4122  140.8174  167.0453 C.ar    1  UNL1        0.0324
      5 C         139.4658  139.7161  167.4213 C.ar    1  UNL1        0.1015
      6 N         138.8224  138.8827  166.3528 N.ar    1  UNL1       -0.2290
      7 C         141.0556  141.6508  168.1137 C.ar    1  UNL1        0.0049
      8 C         142.4104  141.2801  168.6400 C.ar    1  UNL1        0.0002
      9 C         143.0538  142.1134  169.7084 C.ar    1  UNL1        0.0023
     10 C         142.3424  143.3176  170.2505 C.ar    1  UNL1        0.0296
     11 C         140.9875  143.6883  169.7242 C.ar    1  UNL1        0.1401
     12 F         140.2761  144.8925  170.2664 F       1  UNL1       -0.2042
     13 C         140.3442  142.8550  168.6558 C.ar    1  UNL1        0.0297
     14 N         138.4819  138.3174  163.8400 N.pl3   1  UNL1       -0.2821
     15 H         137.9618  137.5183  164.0853 H       1  UNL1        0.1551
     16 C         138.9291  139.4697  159.5131 C.ar    1  UNL1        0.1683
     17 C         137.8320  140.0718  160.3401 C.ar    1  UNL1        0.1299
     18 N         137.6830  139.6877  161.7824 N.ar    1  UNL1       -0.2251
     19 C         138.6310  138.7015  162.3977 C.ar    1  UNL1        0.1527
     20 C         139.7280  138.0994  161.5707 C.ar    1  UNL1        0.1340
     21 N         139.8770  138.4835  160.1284 N.ar    1  UNL1       -0.2290
     22 N         139.2272  140.2380  156.6285 N.1     1  UNL1       -0.1892
     23 C         139.0781  139.8538  158.0708 C.1     1  UNL1        0.1214
     24 N         141.6615  142.1869  165.2248 N.pl3   1  UNL1       -0.3306
     25 H         142.1005  142.7197  165.9267 H       1  UNL1        0.1469
     26 C         141.9389  142.4766  163.7795 C.3     1  UNL1        0.1184
     27 C         141.2429  143.6160  163.0959 C.3     1  UNL1        0.1503
     28 C         141.9476  144.3885  162.0204 C.3     1  UNL1        0.1003
     29 N         141.2517  145.5279  161.3368 N.3     1  UNL1       -0.2933
     30 C         139.8510  145.8950  161.7288 C.3     1  UNL1        0.1011
     31 C         139.1464  145.1225  162.8044 C.3     1  UNL1        0.1592
     32 O         139.8424  143.9830  163.4879 O.3     1  UNL1       -0.3516
     33 H         141.2302  145.3054  160.3416 H       1  UNL1        0.1234
@<TRIPOS>BOND
     1    22    23    3
     2    23    16    1
     3    16    17   ar
     4    17    18   ar
     5    18    19   ar
     6    19    14    1
     7    14     1    1
     8     1     2   ar
     9     2     3   ar
    10     3    24    1
    11    24    26    1
    12    27    26    1
    13    27    28    1
    14    28    29    1
    15    29    30    1
    16    30    31    1
    17    31    32    1
    18     3     4   ar
    19     4     7    1
    20     7     8   ar
    21     8     9   ar
    22     9    10   ar
    23    10    11   ar
    24    11    12    1
    25    11    13   ar
    26     4     5   ar
    27     5     6   ar
    28    19    20   ar
    29    20    21   ar
    30    21    16   ar
    31     6     1   ar
    32    32    27    1
    33    13     7   ar
    34    14    15    1
    35    24    25    1
    36    29    33    1
@<TRIPOS>MOLECULE
*****
 33 36 0 0 0
SMALL
GASTEIGER

@<TRIPOS>ATOM
      1 C         142.1537  143.6932  163.5286 C.ar    1  UNL1        0.1345
      2 C         140.6710  143.5201  163.6755 C.ar    1  UNL1        0.0487
      3 C         140.1050  142.9397  164.9376 C.ar    1  UNL1        0.0490
      4 C         141.0218  142.5324  166.0527 C.ar    1  UNL1        0.0324
      5 C         142.5044  142.7054  165.9059 C.ar    1  UNL1        0.1015
      6 N         143.0705  143.2859  164.6438 N.ar    1  UNL1       -0.2290
      7 C         140.4557  141.9519  167.3148 C.ar    1  UNL1        0.0049
      8 C         139.9350  140.5453  167.3258 C.ar    1  UNL1        0.0002
      9 C         139.3690  139.9649  168.5878 C.ar    1  UNL1        0.0023
     10 C         139.3237  140.7911  169.8389 C.ar    1  UNL1        0.0296
     11 C         139.8445  142.1978  169.8280 C.ar    1  UNL1        0.1401
     12 F         139.7993  143.0240  171.0791 F       1  UNL1       -0.2042
     13 C         140.4105  142.7781  168.5659 C.ar    1  UNL1        0.0297
     14 N         142.7197  144.2736  162.2666 N.pl3   1  UNL1       -0.2821
     15 H         142.8343  145.2477  162.1809 H       1  UNL1        0.1551
     16 C         143.8938  141.5628  158.8721 C.ar    1  UNL1        0.1683
     17 C         143.3380  142.9262  158.5853 C.ar    1  UNL1        0.1299
     18 N         142.9466  143.8298  159.7168 N.ar    1  UNL1       -0.2251
     19 C         143.1111  143.3700  161.1351 C.ar    1  UNL1        0.1527
     20 C         143.6668  142.0066  161.4219 C.ar    1  UNL1        0.1340
     21 N         144.0582  141.1030  160.2904 N.ar    1  UNL1       -0.2290
     22 N         144.6765  139.7555  156.6091 N.1     1  UNL1       -0.1892
     23 C         144.2851  140.6592  157.7406 C.1     1  UNL1        0.1214
     24 N         138.6222  142.7666  165.0845 N.pl3   1  UNL1       -0.3306
     25 H         138.2068  142.8155  165.9757 H       1  UNL1        0.1469
     26 C         137.7725  142.5190  163.8734 C.3     1  UNL1        0.1184
     27 C         137.8361  141.1955  163.1705 C.3     1  UNL1        0.1503
     28 C         138.3449  139.9849  163.8954 C.3     1  UNL1        0.1003
     29 N         138.4085  138.6614  163.1924 N.3     1  UNL1       -0.2933
     30 C         137.9632  138.5484  161.7644 C.3     1  UNL1        0.1011
     31 C         137.4544  139.7590  161.0395 C.3     1  UNL1        0.1592
     32 O         137.3908  141.0826  161.7425 O.3     1  UNL1       -0.3516
     33 H         137.8344  138.0135  163.7319 H       1  UNL1        0.1234
@<TRIPOS>BOND
     1    22    23    3
     2    23    16    1
     3    16    17   ar
     4    17    18   ar
     5    18    19   ar
     6    19    14    1
     7    14     1    1
     8     1     2   ar
     9     2     3   ar
    10     3    24    1
    11    24    26    1
    12    27    26    1
    13    27    28    1
    14    28    29    1
    15    29    30    1
    16    30    31    1
    17    31    32    1
    18     3     4   ar
    19     4     7    1
    20     7     8   ar
    21     8     9   ar
    22     9    10   ar
    23    10    11   ar
    24    11    12    1
    25    11    13   ar
    26     4     5   ar
    27     5     6   ar
    28    19    20   ar
    29    20    21   ar
    30    21    16   ar
    31     6     1   ar
    32    32    27    1
    33    13     7   ar
    34    14    15    1
    35    24    25    1
    36    29    33    1
