@<TRIPOS>MOLECULE
*****
 38 42 0 0 0
SMALL
GASTEIGER

@<TRIPOS>ATOM
      1 C         142.9535  143.6262  158.6144 C.2     1  UNL1        0.4052
      2 O         143.1979  142.9914  157.2774 O.2     1  UNL1       -0.2262
      3 N         143.3149  142.8911  159.8709 N.am    1  UNL1       -0.2460
      4 C         143.1302  143.3954  161.2715 C.3     1  UNL1        0.0968
      5 C         143.6257  142.3386  162.2137 C.3     1  UNL1        0.0234
      6 C         144.1842  141.1233  162.8929 C.3     1  UNL1        0.0230
      7 C         144.1166  141.1812  161.3955 C.3     1  UNL1        0.0234
      8 C         143.9246  141.5227  159.9476 C.3     1  UNL1        0.0968
      9 O         142.3476  144.9960  158.6947 O.3     1  UNL1       -0.4295
     10 C         140.8601  145.1526  158.8086 C.3     1  UNL1        0.2368
     11 C         138.7366  142.5028  160.8627 C.ar    1  UNL1        0.0713
     12 C         139.4754  143.1584  159.7339 C.ar    1  UNL1        0.0098
     13 C         140.1212  144.4970  159.9374 C.ar    1  UNL1        0.0250
     14 C         140.0281  145.1798  161.2697 C.ar    1  UNL1        0.0365
     15 C         139.2892  144.5241  162.3985 C.ar    1  UNL1        0.1473
     16 C         138.6435  143.1857  162.1950 C.ar    1  UNL1        0.0474
     17 N         137.4451  139.8258  160.4557 N.1     1  UNL1       -0.1908
     18 C         138.0908  141.1643  160.6592 C.1     1  UNL1        0.1005
     19 O         139.1961  145.2070  163.7309 O.3     1  UNL1       -0.4044
     20 C         139.5118  144.4487  164.9860 C.3     1  UNL1        0.5753
     21 F         139.8276  143.6905  166.2411 F       1  UNL1       -0.1328
     22 F         140.8465  144.0654  164.4186 F       1  UNL1       -0.1328
     23 F         138.1772  144.8321  165.5533 F       1  UNL1       -0.1328
     24 C         144.5457  140.3883  164.1494 C.3     1  UNL1        0.0898
     25 N         143.5870  140.3579  165.3027 N.am    1  UNL1       -0.3009
     26 C         143.2999  141.6128  166.0727 C.2     1  UNL1        0.2456
     27 O         143.9715  142.8981  165.6893 O.2     1  UNL1       -0.2702
     28 H         143.1462  139.5143  165.5544 H       1  UNL1        0.1497
     29 C         142.3412  141.5824  167.2260 C.2     1  UNL1        0.0525
     30 C         142.4916  142.5617  168.3522 C.2     1  UNL1       -0.0153
     31 C         141.5329  142.5313  169.5054 C.3     1  UNL1        0.0726
     32 C         140.4239  141.5216  169.5325 C.2     1  UNL1        0.0933
     33 N         139.3350  141.2531  170.5287 N.am    1  UNL1       -0.1431
     34 C         138.5118  140.1080  170.0180 C.2     1  UNL1        0.4298
     35 O         137.3180  139.5074  170.6995 O.2     1  UNL1       -0.2238
     36 O         139.0918  139.6687  168.7063 O.3     1  UNL1       -0.4079
     37 C         140.2736  140.5423  168.4062 C.2     1  UNL1        0.1618
     38 C         141.2322  140.5728  167.2530 C.2     1  UNL1        0.0429
@<TRIPOS>BOND
     1    17    18    3
     2    18    11    1
     3    11    12   ar
     4    12    13   ar
     5    13    10    1
     6    10     9    1
     7     9     1    1
     8     1     2    2
     9     1     3   am
    10     3     4    1
    11     5     4    1
    12     5     6    1
    13     6    24    1
    14    24    25    1
    15    25    26   am
    16    26    27    2
    17    26    29    1
    18    29    30    2
    19    30    31    1
    20    31    32    1
    21    32    33    2
    22    33    34    1
    23    34    35    2
    24    34    36    1
    25    36    37    1
    26    37    38    2
    27     6     7    1
    28     7     8    1
    29    13    14   ar
    30    14    15   ar
    31    15    19    1
    32    19    20    1
    33    20    21    1
    34    20    22    1
    35    20    23    1
    36    15    16   ar
    37    16    11   ar
    38     8     3    1
    39     7     5    1
    40    38    29    1
    41    37    32    1
    42    25    28    1
@<TRIPOS>MOLECULE
*****
 38 42 0 0 0
SMALL
GASTEIGER

@<TRIPOS>ATOM
      1 C         141.4615  138.6047  158.2958 C.2     1  UNL1        0.4052
      2 O         141.5723  137.3319  157.5097 O.2     1  UNL1       -0.2262
      3 N         142.2019  138.7526  159.5918 N.am    1  UNL1       -0.2460
      4 C         142.1877  139.9594  160.4825 C.3     1  UNL1        0.0968
      5 C         143.0636  139.6723  161.6660 C.3     1  UNL1        0.0234
      6 C         143.9826  139.1084  162.7088 C.3     1  UNL1        0.0230
      7 C         143.6190  138.2881  161.5067 C.3     1  UNL1        0.0234
      8 C         143.0865  137.7197  160.2248 C.3     1  UNL1        0.0968
      9 O         140.6102  139.7295  157.7857 O.3     1  UNL1       -0.4295
     10 C         139.1722  139.8296  158.2007 C.3     1  UNL1        0.2368
     11 C         138.2059  141.5784  161.6297 C.ar    1  UNL1        0.0713
     12 C         138.5578  141.3920  160.1835 C.ar    1  UNL1        0.0098
     13 C         138.8203  140.0160  159.6469 C.ar    1  UNL1        0.0250
     14 C         138.7308  138.8266  160.5564 C.ar    1  UNL1        0.0365
     15 C         138.3789  139.0131  162.0026 C.ar    1  UNL1        0.1473
     16 C         138.1164  140.3889  162.5392 C.ar    1  UNL1        0.0474
     17 N         137.6809  144.3302  162.7030 N.1     1  UNL1       -0.1908
     18 C         137.9434  142.9543  162.1664 C.1     1  UNL1        0.1005
     19 O         138.2895  137.8236  162.9121 O.3     1  UNL1       -0.4044
     20 C         139.3496  137.5894  163.9471 C.3     1  UNL1        0.5753
     21 F         140.4098  137.3553  164.9821 F       1  UNL1       -0.1328
     22 F         140.3156  137.1969  162.8688 F       1  UNL1       -0.1328
     23 F         138.3836  137.9820  165.0254 F       1  UNL1       -0.1328
     24 C         144.7230  139.2563  164.0048 C.3     1  UNL1        0.0898
     25 N         143.9640  139.3641  165.2942 N.am    1  UNL1       -0.3009
     26 C         143.3337  140.6674  165.6867 C.2     1  UNL1        0.2456
     27 O         143.4624  141.8629  164.7900 O.2     1  UNL1       -0.2702
     28 H         143.8795  138.5795  165.8827 H       1  UNL1        0.1497
     29 C         142.5747  140.7752  166.9761 C.2     1  UNL1        0.0525
     30 C         142.5222  139.6070  167.9154 C.2     1  UNL1       -0.0153
     31 C         141.7632  139.7148  169.2047 C.3     1  UNL1        0.0726
     32 C         141.0567  140.9909  169.5546 C.2     1  UNL1        0.0933
     33 N         140.2357  141.3897  170.7450 N.am    1  UNL1       -0.1431
     34 C         139.7808  142.8045  170.5413 C.2     1  UNL1        0.4298
     35 O         138.9347  143.6035  171.4878 O.2     1  UNL1       -0.2238
     36 O         140.3206  143.2800  169.2251 O.3     1  UNL1       -0.4079
     37 C         141.1091  142.1591  168.6153 C.2     1  UNL1        0.1618
     38 C         141.8681  142.0513  167.3260 C.2     1  UNL1        0.0429
@<TRIPOS>BOND
     1    17    18    3
     2    18    11    1
     3    11    12   ar
     4    12    13   ar
     5    13    10    1
     6    10     9    1
     7     9     1    1
     8     1     2    2
     9     1     3   am
    10     3     4    1
    11     5     4    1
    12     5     6    1
    13     6    24    1
    14    24    25    1
    15    25    26   am
    16    26    27    2
    17    26    29    1
    18    29    30    2
    19    30    31    1
    20    31    32    1
    21    32    33    2
    22    33    34    1
    23    34    35    2
    24    34    36    1
    25    36    37    1
    26    37    38    2
    27     6     7    1
    28     7     8    1
    29    13    14   ar
    30    14    15   ar
    31    15    19    1
    32    19    20    1
    33    20    21    1
    34    20    22    1
    35    20    23    1
    36    15    16   ar
    37    16    11   ar
    38     8     3    1
    39     7     5    1
    40    38    29    1
    41    37    32    1
    42    25    28    1
@<TRIPOS>MOLECULE
*****
 38 42 0 0 0
SMALL
GASTEIGER

@<TRIPOS>ATOM
      1 C         143.1966  139.9939  158.2105 C.2     1  UNL1        0.4052
      2 O         144.0425  139.2028  157.2572 O.2     1  UNL1       -0.2262
      3 N         142.7225  139.3686  159.4888 N.am    1  UNL1       -0.2460
      4 C         141.8751  140.0321  160.5336 C.3     1  UNL1        0.0968
      5 C         141.6414  139.0435  161.6373 C.3     1  UNL1        0.0234
      6 C         141.5822  137.8648  162.5631 C.3     1  UNL1        0.0230
      7 C         142.3443  137.7690  161.2746 C.3     1  UNL1        0.0234
      8 C         143.0125  137.9699  159.9468 C.3     1  UNL1        0.0968
      9 O         142.8249  141.4103  157.8854 O.3     1  UNL1       -0.4295
     10 C         143.6377  142.5443  158.4363 C.3     1  UNL1        0.2368
     11 C         141.7398  144.5687  161.2736 C.ar    1  UNL1        0.0713
     12 C         142.0783  143.9850  159.9339 C.ar    1  UNL1        0.0098
     13 C         143.2993  143.1280  159.7760 C.ar    1  UNL1        0.0250
     14 C         144.1818  142.8549  160.9577 C.ar    1  UNL1        0.0365
     15 C         143.8434  143.4387  162.2974 C.ar    1  UNL1        0.1473
     16 C         142.6225  144.2955  162.4553 C.ar    1  UNL1        0.0474
     17 N         139.2980  146.2825  161.5895 N.1     1  UNL1       -0.1908
     18 C         140.5189  145.4256  161.4315 C.1     1  UNL1        0.1005
     19 O         144.7260  143.1655  163.4791 O.3     1  UNL1       -0.4044
     20 C         145.0139  141.7517  163.8892 C.3     1  UNL1        0.5753
     21 F         145.3019  140.3378  164.2993 F       1  UNL1       -0.1328
     22 F         143.6532  141.6555  164.5131 F       1  UNL1       -0.1328
     23 F         146.3746  141.8478  163.2653 F       1  UNL1       -0.1328
     24 C         141.1081  137.2395  163.8414 C.3     1  UNL1        0.0898
     25 N         141.2326  137.9894  165.1345 N.am    1  UNL1       -0.3009
     26 C         140.3529  139.1745  165.4019 C.2     1  UNL1        0.2456
     27 O         139.3486  139.6097  164.3762 O.2     1  UNL1       -0.2702
     28 H         141.8917  137.7038  165.8077 H       1  UNL1        0.1497
     29 C         140.4774  139.9245  166.6950 C.2     1  UNL1        0.0525
     30 C         139.4134  139.7926  167.7440 C.2     1  UNL1       -0.0153
     31 C         139.5379  140.5425  169.0370 C.3     1  UNL1        0.0726
     32 C         140.7265  141.4244  169.2811 C.2     1  UNL1        0.0933
     33 N         141.1187  142.2797  170.4494 N.am    1  UNL1       -0.1431
     34 C         142.4251  142.9402  170.1223 C.2     1  UNL1        0.4298
     35 O         143.1833  143.8824  171.0098 O.2     1  UNL1       -0.2238
     36 O         142.8403  142.4932  168.7520 O.3     1  UNL1       -0.4079
     37 C         141.7905  141.5564  168.2321 C.2     1  UNL1        0.1618
     38 C         141.6660  140.8064  166.9391 C.2     1  UNL1        0.0429
@<TRIPOS>BOND
     1    17    18    3
     2    18    11    1
     3    11    12   ar
     4    12    13   ar
     5    13    10    1
     6    10     9    1
     7     9     1    1
     8     1     2    2
     9     1     3   am
    10     3     4    1
    11     5     4    1
    12     5     6    1
    13     6    24    1
    14    24    25    1
    15    25    26   am
    16    26    27    2
    17    26    29    1
    18    29    30    2
    19    30    31    1
    20    31    32    1
    21    32    33    2
    22    33    34    1
    23    34    35    2
    24    34    36    1
    25    36    37    1
    26    37    38    2
    27     6     7    1
    28     7     8    1
    29    13    14   ar
    30    14    15   ar
    31    15    19    1
    32    19    20    1
    33    20    21    1
    34    20    22    1
    35    20    23    1
    36    15    16   ar
    37    16    11   ar
    38     8     3    1
    39     7     5    1
    40    38    29    1
    41    37    32    1
    42    25    28    1
@<TRIPOS>MOLECULE
*****
 38 42 0 0 0
SMALL
GASTEIGER

@<TRIPOS>ATOM
      1 C         138.5245  140.5304  158.4264 C.2     1  UNL1        0.4052
      2 O         137.1971  140.6691  157.7418 O.2     1  UNL1       -0.2262
      3 N         138.6045  139.9074  159.7886 N.am    1  UNL1       -0.2460
      4 C         139.8542  139.7026  160.5924 C.3     1  UNL1        0.0968
      5 C         139.4707  139.0484  161.8867 C.3     1  UNL1        0.0234
      6 C         138.7967  138.4091  163.0644 C.3     1  UNL1        0.0230
      7 C         137.9841  138.8489  161.8827 C.3     1  UNL1        0.0234
      8 C         137.4487  139.3797  160.5860 C.3     1  UNL1        0.0968
      9 O         139.7721  141.0147  157.7488 O.3     1  UNL1       -0.4295
     10 C         140.2273  142.4313  157.9391 C.3     1  UNL1        0.2368
     11 C         142.1295  143.3074  161.3102 C.ar    1  UNL1        0.0713
     12 C         141.8582  142.7857  159.9302 C.ar    1  UNL1        0.0098
     13 C         140.4986  142.9529  159.3191 C.ar    1  UNL1        0.0250
     14 C         139.4102  143.6416  160.0879 C.ar    1  UNL1        0.0365
     15 C         139.6815  144.1633  161.4679 C.ar    1  UNL1        0.1473
     16 C         141.0411  143.9961  162.0790 C.ar    1  UNL1        0.0474
     17 N         144.8487  142.9731  162.5324 N.1     1  UNL1       -0.1908
     18 C         143.4891  143.1402  161.9213 C.1     1  UNL1        0.1005
     19 O         138.5931  144.8520  162.2367 O.3     1  UNL1       -0.4044
     20 C         138.0771  144.2491  163.5096 C.3     1  UNL1        0.5753
     21 F         137.5611  143.6462  164.7825 F       1  UNL1       -0.1328
     22 F         138.9285  145.1955  164.3030 F       1  UNL1       -0.1328
     23 F         137.2258  143.3027  162.7162 F       1  UNL1       -0.1328
     24 C         138.8766  137.7861  164.4265 C.3     1  UNL1        0.0898
     25 N         139.0355  138.6536  165.6399 N.am    1  UNL1       -0.3009
     26 C         140.3931  139.1611  166.0264 C.2     1  UNL1        0.2456
     27 O         141.5917  138.8011  165.1997 O.2     1  UNL1       -0.2702
     28 H         138.2488  138.8899  166.1825 H       1  UNL1        0.1497
     29 C         140.5520  140.0286  167.2398 C.2     1  UNL1        0.0525
     30 C         139.4488  140.1107  168.2528 C.2     1  UNL1       -0.0153
     31 C         139.6077  140.9782  169.4661 C.3     1  UNL1        0.0726
     32 C         140.8699  141.7636  169.6665 C.2     1  UNL1        0.0933
     33 N         141.3093  142.6965  170.7558 N.am    1  UNL1       -0.1431
     34 C         142.6840  143.1910  170.4160 C.2     1  UNL1        0.4298
     35 O         143.5046  144.1453  171.2323 O.2     1  UNL1       -0.2238
     36 O         143.0943  142.5636  169.1168 O.3     1  UNL1       -0.4079
     37 C         141.9731  141.6814  168.6535 C.2     1  UNL1        0.1618
     38 C         141.8141  140.8139  167.4402 C.2     1  UNL1        0.0429
@<TRIPOS>BOND
     1    17    18    3
     2    18    11    1
     3    11    12   ar
     4    12    13   ar
     5    13    10    1
     6    10     9    1
     7     9     1    1
     8     1     2    2
     9     1     3   am
    10     3     4    1
    11     5     4    1
    12     5     6    1
    13     6    24    1
    14    24    25    1
    15    25    26   am
    16    26    27    2
    17    26    29    1
    18    29    30    2
    19    30    31    1
    20    31    32    1
    21    32    33    2
    22    33    34    1
    23    34    35    2
    24    34    36    1
    25    36    37    1
    26    37    38    2
    27     6     7    1
    28     7     8    1
    29    13    14   ar
    30    14    15   ar
    31    15    19    1
    32    19    20    1
    33    20    21    1
    34    20    22    1
    35    20    23    1
    36    15    16   ar
    37    16    11   ar
    38     8     3    1
    39     7     5    1
    40    38    29    1
    41    37    32    1
    42    25    28    1
@<TRIPOS>MOLECULE
*****
 38 42 0 0 0
SMALL
GASTEIGER

@<TRIPOS>ATOM
      1 C         141.6142  138.5925  159.0840 C.2     1  UNL1        0.4052
      2 O         143.0814  138.3312  158.9127 O.2     1  UNL1       -0.2262
      3 N         140.9585  138.3467  160.4105 N.am    1  UNL1       -0.2460
      4 C         139.5088  138.5612  160.7306 C.3     1  UNL1        0.0968
      5 C         139.2917  138.1903  162.1677 C.3     1  UNL1        0.0234
      6 C         139.3814  137.7557  163.6005 C.3     1  UNL1        0.0230
      7 C         140.6071  137.7467  162.7358 C.3     1  UNL1        0.0234
      8 C         141.6372  137.8433  161.6498 C.3     1  UNL1        0.0968
      9 O         140.8029  139.0997  157.9288 O.3     1  UNL1       -0.4295
     10 C         140.6352  140.5757  157.7207 C.3     1  UNL1        0.2368
     11 C         141.8500  142.9154  160.6873 C.ar    1  UNL1        0.0713
     12 C         141.8836  141.9906  159.5067 C.ar    1  UNL1        0.0098
     13 C         140.6016  141.5005  158.9012 C.ar    1  UNL1        0.0250
     14 C         139.2862  141.9352  159.4762 C.ar    1  UNL1        0.0365
     15 C         139.2526  142.8600  160.6567 C.ar    1  UNL1        0.1473
     16 C         140.5345  143.3501  161.2623 C.ar    1  UNL1        0.0474
     17 N         144.4136  143.8955  161.8983 N.1     1  UNL1       -0.1908
     18 C         143.1318  143.4054  161.2928 C.1     1  UNL1        0.1005
     19 O         137.9371  143.2947  161.2317 O.3     1  UNL1       -0.4044
     20 C         137.7153  143.2499  162.7146 C.3     1  UNL1        0.5753
     21 F         137.4934  143.2051  164.1974 F       1  UNL1       -0.1328
     22 F         137.5650  141.7590  162.6470 F       1  UNL1       -0.1328
     23 F         137.8655  144.7408  162.7821 F       1  UNL1       -0.1328
     24 C         138.7257  137.5099  164.9270 C.3     1  UNL1        0.0898
     25 N         139.2724  138.1565  166.1652 N.am    1  UNL1       -0.3009
     26 C         139.0780  139.6265  166.3919 C.2     1  UNL1        0.2456
     27 O         138.3369  140.4498  165.3805 O.2     1  UNL1       -0.2702
     28 H         139.7587  137.6161  166.8290 H       1  UNL1        0.1497
     29 C         139.6246  140.2731  167.6302 C.2     1  UNL1        0.0525
     30 C         138.9920  139.9975  168.9620 C.2     1  UNL1       -0.0153
     31 C         139.5387  140.6441  170.2001 C.3     1  UNL1        0.0726
     32 C         140.7179  141.5664  170.1064 C.2     1  UNL1        0.0933
     33 N         141.4702  142.3427  171.1464 N.am    1  UNL1       -0.1431
     34 C         142.5677  143.0980  170.4573 C.2     1  UNL1        0.4298
     35 O         143.5642  144.0038  171.1181 O.2     1  UNL1       -0.2238
     36 O         142.4938  142.7886  168.9914 O.3     1  UNL1       -0.4079
     37 C         141.3506  141.8420  168.7746 C.2     1  UNL1        0.1618
     38 C         140.8039  141.1953  167.5364 C.2     1  UNL1        0.0429
@<TRIPOS>BOND
     1    17    18    3
     2    18    11    1
     3    11    12   ar
     4    12    13   ar
     5    13    10    1
     6    10     9    1
     7     9     1    1
     8     1     2    2
     9     1     3   am
    10     3     4    1
    11     5     4    1
    12     5     6    1
    13     6    24    1
    14    24    25    1
    15    25    26   am
    16    26    27    2
    17    26    29    1
    18    29    30    2
    19    30    31    1
    20    31    32    1
    21    32    33    2
    22    33    34    1
    23    34    35    2
    24    34    36    1
    25    36    37    1
    26    37    38    2
    27     6     7    1
    28     7     8    1
    29    13    14   ar
    30    14    15   ar
    31    15    19    1
    32    19    20    1
    33    20    21    1
    34    20    22    1
    35    20    23    1
    36    15    16   ar
    37    16    11   ar
    38     8     3    1
    39     7     5    1
    40    38    29    1
    41    37    32    1
    42    25    28    1
@<TRIPOS>MOLECULE
*****
 38 42 0 0 0
SMALL
GASTEIGER

@<TRIPOS>ATOM
      1 C         144.1115  139.3655  163.4808 C.2     1  UNL1        0.4052
      2 O         145.1590  140.4199  163.6836 O.2     1  UNL1       -0.2262
      3 N         143.6442  139.0291  162.0958 N.am    1  UNL1       -0.2460
      4 C         142.6093  138.0035  161.7392 C.3     1  UNL1        0.0968
      5 C         142.4552  137.9999  160.2471 C.3     1  UNL1        0.0234
      6 C         142.5202  138.2202  158.7648 C.3     1  UNL1        0.0230
      7 C         143.3948  139.0231  159.6815 C.3     1  UNL1        0.0234
      8 C         144.1297  139.6592  160.8241 C.3     1  UNL1        0.0968
      9 O         143.5314  138.6474  164.6632 O.3     1  UNL1       -0.4295
     10 C         143.6629  139.2361  166.0366 C.3     1  UNL1        0.2368
     11 C         141.3406  140.6586  168.9234 C.ar    1  UNL1        0.0713
     12 C         142.5682  140.2784  168.1497 C.ar    1  UNL1        0.0098
     13 C         142.4353  139.6163  166.8103 C.ar    1  UNL1        0.0250
     14 C         141.0750  139.3343  166.2447 C.ar    1  UNL1        0.0365
     15 C         139.8475  139.7145  167.0183 C.ar    1  UNL1        0.1473
     16 C         139.9802  140.3766  168.3577 C.ar    1  UNL1        0.0474
     17 N         141.6061  141.9829  171.6021 N.1     1  UNL1       -0.1908
     18 C         141.4734  141.3208  170.2628 C.1     1  UNL1        0.1005
     19 O         138.4871  139.4325  166.4526 O.3     1  UNL1       -0.4044
     20 C         137.8462  138.0942  166.6724 C.3     1  UNL1        0.5753
     21 F         137.2052  136.7560  166.8922 F       1  UNL1       -0.1328
     22 F         137.1928  138.6120  167.9194 F       1  UNL1       -0.1328
     23 F         138.4995  137.5765  165.4254 F       1  UNL1       -0.1328
     24 C         142.0529  137.8838  157.3798 C.3     1  UNL1        0.0898
     25 N         142.1186  136.4678  156.8892 N.am    1  UNL1       -0.3009
     26 C         143.2961  136.0076  156.0820 C.2     1  UNL1        0.2456
     27 O         144.4080  136.9633  155.7653 O.2     1  UNL1       -0.2702
     28 H         141.3889  135.8405  157.0971 H       1  UNL1        0.1497
     29 C         143.3618  134.5915  155.5915 C.2     1  UNL1        0.0525
     30 C         142.5343  134.1662  154.4149 C.2     1  UNL1       -0.0153
     31 C         142.6000  132.7502  153.9245 C.3     1  UNL1        0.0726
     32 C         143.4933  131.7595  154.6105 C.2     1  UNL1        0.0933
     33 N         143.7641  130.3066  154.3542 N.am    1  UNL1       -0.1431
     34 C         144.7590  129.8339  155.3725 C.2     1  UNL1        0.4298
     35 O         145.3127  128.4444  155.4854 O.2     1  UNL1       -0.2238
     36 O         145.1030  130.9948  156.2580 O.3     1  UNL1       -0.4079
     37 C         144.3208  132.1848  155.7870 C.2     1  UNL1        0.1618
     38 C         144.2551  133.6008  156.2775 C.2     1  UNL1        0.0429
@<TRIPOS>BOND
     1    17    18    3
     2    18    11    1
     3    11    12   ar
     4    12    13   ar
     5    13    10    1
     6    10     9    1
     7     9     1    1
     8     1     2    2
     9     1     3   am
    10     3     4    1
    11     5     4    1
    12     5     6    1
    13     6    24    1
    14    24    25    1
    15    25    26   am
    16    26    27    2
    17    26    29    1
    18    29    30    2
    19    30    31    1
    20    31    32    1
    21    32    33    2
    22    33    34    1
    23    34    35    2
    24    34    36    1
    25    36    37    1
    26    37    38    2
    27     6     7    1
    28     7     8    1
    29    13    14   ar
    30    14    15   ar
    31    15    19    1
    32    19    20    1
    33    20    21    1
    34    20    22    1
    35    20    23    1
    36    15    16   ar
    37    16    11   ar
    38     8     3    1
    39     7     5    1
    40    38    29    1
    41    37    32    1
    42    25    28    1
@<TRIPOS>MOLECULE
*****
 38 42 0 0 0
SMALL
GASTEIGER

@<TRIPOS>ATOM
      1 C         144.8819  141.0224  163.2670 C.2     1  UNL1        0.4052
      2 O         145.2824  140.1006  164.3805 O.2     1  UNL1       -0.2262
      3 N         144.3639  140.4593  161.9768 N.am    1  UNL1       -0.2460
      4 C         143.9273  141.2525  160.7809 C.3     1  UNL1        0.0968
      5 C         143.4852  140.2875  159.7209 C.3     1  UNL1        0.0234
      6 C         143.1183  139.1051  158.8740 C.3     1  UNL1        0.0230
      7 C         143.6486  138.8980  160.2618 C.3     1  UNL1        0.0234
      8 C         144.1917  139.0041  161.6559 C.3     1  UNL1        0.0968
      9 O         144.9994  142.5073  163.4437 O.3     1  UNL1       -0.4295
     10 C         144.6413  143.1369  164.7573 C.3     1  UNL1        0.2368
     11 C         141.7960  142.1838  167.3545 C.ar    1  UNL1        0.0713
     12 C         143.1544  142.4099  166.7600 C.ar    1  UNL1        0.0098
     13 C         143.2829  142.9108  165.3518 C.ar    1  UNL1        0.0250
     14 C         142.0530  143.1855  164.5384 C.ar    1  UNL1        0.0365
     15 C         140.6945  142.9594  165.1329 C.ar    1  UNL1        0.1473
     16 C         140.5660  142.4586  166.5410 C.ar    1  UNL1        0.0474
     17 N         141.5389  141.1822  170.1706 N.1     1  UNL1       -0.1908
     18 C         141.6674  141.6830  168.7625 C.1     1  UNL1        0.1005
     19 O         139.4646  143.2341  164.3194 O.3     1  UNL1       -0.4044
     20 C         138.3322  144.0184  164.9133 C.3     1  UNL1        0.5753
     21 F         137.1999  144.8027  165.5072 F       1  UNL1       -0.1328
     22 F         139.2391  145.2015  165.0800 F       1  UNL1       -0.1328
     23 F         137.4254  142.8353  164.7465 F       1  UNL1       -0.1328
     24 C         142.6004  138.5420  157.5838 C.3     1  UNL1        0.0898
     25 N         142.3693  137.0660  157.4488 N.am    1  UNL1       -0.3009
     26 C         143.2768  136.2407  156.5855 C.2     1  UNL1        0.2456
     27 O         144.4154  136.8913  155.8573 O.2     1  UNL1       -0.2702
     28 H         141.6220  136.6390  157.9267 H       1  UNL1        0.1497
     29 C         143.0458  134.7647  156.4504 C.2     1  UNL1        0.0525
     30 C         141.9455  134.2555  155.5673 C.2     1  UNL1       -0.0153
     31 C         141.7145  132.7796  155.4322 C.3     1  UNL1        0.0726
     32 C         142.5838  131.8129  156.1804 C.2     1  UNL1        0.0933
     33 N         142.5943  130.3142  156.2441 N.am    1  UNL1       -0.1431
     34 C         143.7010  129.8973  157.1667 C.2     1  UNL1        0.4298
     35 O         144.0696  128.4869  157.5208 O.2     1  UNL1       -0.2238
     36 O         144.3746  131.1382  157.6732 O.3     1  UNL1       -0.4079
     37 C         143.6841  132.3221  157.0636 C.2     1  UNL1        0.1618
     38 C         143.9151  133.7980  157.1986 C.2     1  UNL1        0.0429
@<TRIPOS>BOND
     1    17    18    3
     2    18    11    1
     3    11    12   ar
     4    12    13   ar
     5    13    10    1
     6    10     9    1
     7     9     1    1
     8     1     2    2
     9     1     3   am
    10     3     4    1
    11     5     4    1
    12     5     6    1
    13     6    24    1
    14    24    25    1
    15    25    26   am
    16    26    27    2
    17    26    29    1
    18    29    30    2
    19    30    31    1
    20    31    32    1
    21    32    33    2
    22    33    34    1
    23    34    35    2
    24    34    36    1
    25    36    37    1
    26    37    38    2
    27     6     7    1
    28     7     8    1
    29    13    14   ar
    30    14    15   ar
    31    15    19    1
    32    19    20    1
    33    20    21    1
    34    20    22    1
    35    20    23    1
    36    15    16   ar
    37    16    11   ar
    38     8     3    1
    39     7     5    1
    40    38    29    1
    41    37    32    1
    42    25    28    1
@<TRIPOS>MOLECULE
*****
 38 42 0 0 0
SMALL
GASTEIGER

@<TRIPOS>ATOM
      1 C         140.0955  140.2144  168.6393 C.2     1  UNL1        0.4052
      2 O         139.0454  140.3873  169.6964 O.2     1  UNL1       -0.2262
      3 N         139.7280  139.6377  167.3042 N.am    1  UNL1       -0.2460
      4 C         140.6645  139.4066  166.1556 C.3     1  UNL1        0.0968
      5 C         139.8746  138.8170  165.0249 C.3     1  UNL1        0.0234
      6 C         138.8440  138.2509  164.0936 C.3     1  UNL1        0.0230
      7 C         138.4499  138.6837  165.4747 C.3     1  UNL1        0.0234
      8 C         138.3593  139.1909  166.8834 C.3     1  UNL1        0.0968
      9 O         141.5132  140.6182  168.9172 O.3     1  UNL1       -0.4295
     10 C         141.9981  141.9793  168.5142 C.3     1  UNL1        0.2368
     11 C         143.5096  142.3363  164.8621 C.ar    1  UNL1        0.0713
     12 C         143.3812  141.9857  166.3149 C.ar    1  UNL1        0.0098
     13 C         142.1265  142.3299  167.0614 C.ar    1  UNL1        0.0250
     14 C         141.0003  143.0247  166.3552 C.ar    1  UNL1        0.0365
     15 C         141.1287  143.3753  164.9024 C.ar    1  UNL1        0.1473
     16 C         142.3833  143.0311  164.1558 C.ar    1  UNL1        0.0474
     17 N         146.0189  141.6480  163.3690 N.1     1  UNL1       -0.1908
     18 C         144.7643  141.9921  164.1156 C.1     1  UNL1        0.1005
     19 O         140.0023  144.0701  164.1961 O.3     1  UNL1       -0.4044
     20 C         138.5846  143.8183  164.6164 C.3     1  UNL1        0.5753
     21 F         137.1669  143.5664  165.0367 F       1  UNL1       -0.1328
     22 F         138.5378  145.1687  165.2677 F       1  UNL1       -0.1328
     23 F         138.6314  142.4678  163.9651 F       1  UNL1       -0.1328
     24 C         138.4764  137.6743  162.7586 C.3     1  UNL1        0.0898
     25 N         139.0377  138.2728  161.5028 N.am    1  UNL1       -0.3009
     26 C         140.4898  138.0958  161.1716 C.2     1  UNL1        0.2456
     27 O         141.3809  137.3202  162.0960 O.2     1  UNL1       -0.2702
     28 H         138.4529  138.7818  160.8961 H       1  UNL1        0.1497
     29 C         141.0511  138.6943  159.9158 C.2     1  UNL1        0.0525
     30 C         140.1365  139.0538  158.7825 C.2     1  UNL1       -0.0153
     31 C         140.6978  139.6523  157.5269 C.3     1  UNL1        0.0726
     32 C         142.1736  139.8913  157.4045 C.2     1  UNL1        0.0933
     33 N         143.0094  140.4623  156.2975 N.am    1  UNL1       -0.1431
     34 C         144.4406  140.4557  156.7467 C.2     1  UNL1        0.4298
     35 O         145.6167  140.9392  155.9510 O.2     1  UNL1       -0.2238
     36 O         144.4892  139.8806  158.1312 O.3     1  UNL1       -0.4079
     37 C         143.0881  139.5318  158.5377 C.2     1  UNL1        0.1618
     38 C         142.5268  138.9333  159.7934 C.2     1  UNL1        0.0429
@<TRIPOS>BOND
     1    17    18    3
     2    18    11    1
     3    11    12   ar
     4    12    13   ar
     5    13    10    1
     6    10     9    1
     7     9     1    1
     8     1     2    2
     9     1     3   am
    10     3     4    1
    11     5     4    1
    12     5     6    1
    13     6    24    1
    14    24    25    1
    15    25    26   am
    16    26    27    2
    17    26    29    1
    18    29    30    2
    19    30    31    1
    20    31    32    1
    21    32    33    2
    22    33    34    1
    23    34    35    2
    24    34    36    1
    25    36    37    1
    26    37    38    2
    27     6     7    1
    28     7     8    1
    29    13    14   ar
    30    14    15   ar
    31    15    19    1
    32    19    20    1
    33    20    21    1
    34    20    22    1
    35    20    23    1
    36    15    16   ar
    37    16    11   ar
    38     8     3    1
    39     7     5    1
    40    38    29    1
    41    37    32    1
    42    25    28    1
@<TRIPOS>MOLECULE
*****
 38 42 0 0 0
SMALL
GASTEIGER

@<TRIPOS>ATOM
      1 C         139.6757  139.9831  168.9082 C.2     1  UNL1        0.4052
      2 O         138.5352  140.0442  169.8807 O.2     1  UNL1       -0.2262
      3 N         139.4357  139.5306  167.4984 N.am    1  UNL1       -0.2460
      4 C         140.4721  139.4190  166.4198 C.3     1  UNL1        0.0968
      5 C         139.7941  138.9296  165.1744 C.3     1  UNL1        0.0234
      6 C         138.8586  138.4424  164.1079 C.3     1  UNL1        0.0230
      7 C         138.3387  138.7389  165.4833 C.3     1  UNL1        0.0234
      8 C         138.1172  139.1103  166.9196 C.3     1  UNL1        0.0968
      9 O         141.0560  140.3745  169.3456 O.3     1  UNL1       -0.4295
     10 C         141.5777  141.7478  169.0422 C.3     1  UNL1        0.2368
     11 C         143.1380  142.3958  165.4511 C.ar    1  UNL1        0.0713
     12 C         142.9967  141.9448  166.8747 C.ar    1  UNL1        0.0098
     13 C         141.7191  142.1988  167.6186 C.ar    1  UNL1        0.0250
     14 C         140.5829  142.9038  166.9389 C.ar    1  UNL1        0.0365
     15 C         140.7242  143.3548  165.5153 C.ar    1  UNL1        0.1473
     16 C         142.0017  143.1008  164.7714 C.ar    1  UNL1        0.0474
     17 N         145.6930  141.8878  163.9633 N.1     1  UNL1       -0.1908
     18 C         144.4155  142.1418  164.7072 C.1     1  UNL1        0.1005
     19 O         139.5880  144.0599  164.8356 O.3     1  UNL1       -0.4044
     20 C         138.3276  143.3133  164.5131 C.3     1  UNL1        0.5753
     21 F         137.0672  142.5668  164.1906 F       1  UNL1       -0.1328
     22 F         137.5160  144.5063  164.9232 F       1  UNL1       -0.1328
     23 F         139.1391  142.1204  164.1030 F       1  UNL1       -0.1328
     24 C         138.6186  137.9899  162.6981 C.3     1  UNL1        0.0898
     25 N         139.0329  138.8617  161.5498 N.am    1  UNL1       -0.3009
     26 C         138.2525  140.1021  161.2301 C.2     1  UNL1        0.2456
     27 O         137.0577  140.4708  162.0587 O.2     1  UNL1       -0.2702
     28 H         139.8171  138.6196  161.0060 H       1  UNL1        0.1497
     29 C         138.6668  140.9738  160.0818 C.2     1  UNL1        0.0525
     30 C         138.7517  140.4012  158.6980 C.2     1  UNL1       -0.0153
     31 C         139.1659  141.2729  157.5498 C.3     1  UNL1        0.0726
     32 C         139.4953  142.7172  157.7854 C.2     1  UNL1        0.0933
     33 N         139.9299  143.8120  156.8566 N.am    1  UNL1       -0.1431
     34 C         140.1136  145.0612  157.6664 C.2     1  UNL1        0.4298
     35 O         140.5430  146.3984  157.1395 O.2     1  UNL1       -0.2238
     36 O         139.7926  144.7384  159.0956 O.3     1  UNL1       -0.4079
     37 C         139.4105  143.2898  159.1692 C.2     1  UNL1        0.1618
     38 C         138.9962  142.4181  160.3174 C.2     1  UNL1        0.0429
@<TRIPOS>BOND
     1    17    18    3
     2    18    11    1
     3    11    12   ar
     4    12    13   ar
     5    13    10    1
     6    10     9    1
     7     9     1    1
     8     1     2    2
     9     1     3   am
    10     3     4    1
    11     5     4    1
    12     5     6    1
    13     6    24    1
    14    24    25    1
    15    25    26   am
    16    26    27    2
    17    26    29    1
    18    29    30    2
    19    30    31    1
    20    31    32    1
    21    32    33    2
    22    33    34    1
    23    34    35    2
    24    34    36    1
    25    36    37    1
    26    37    38    2
    27     6     7    1
    28     7     8    1
    29    13    14   ar
    30    14    15   ar
    31    15    19    1
    32    19    20    1
    33    20    21    1
    34    20    22    1
    35    20    23    1
    36    15    16   ar
    37    16    11   ar
    38     8     3    1
    39     7     5    1
    40    38    29    1
    41    37    32    1
    42    25    28    1
