@<TRIPOS>MOLECULE
*****
 30 33 0 0 0
SMALL
GASTEIGER

@<TRIPOS>ATOM
      1 C         142.2711  142.0999  165.1323 C.ar    1  UNL1        0.0888
      2 C         141.5947  143.1367  164.2854 C.ar    1  UNL1        0.0221
      3 C         141.7078  143.0748  162.7909 C.ar    1  UNL1        0.0483
      4 C         142.4973  141.9760  162.1434 C.ar    1  UNL1        0.0176
      5 C         143.1737  140.9391  162.9904 C.ar    1  UNL1        0.0383
      6 C         143.0606  141.0010  164.4848 C.ar    1  UNL1        0.1434
      7 N         141.0314  144.1117  161.9439 N.pl3   1  UNL1       -0.3028
      8 C         141.0228  143.9712  160.4506 C.3     1  UNL1        0.1231
      9 C         140.3464  145.0080  159.6036 C.3     1  UNL1        0.1636
     10 O         139.6786  146.1854  160.2500 O.3     1  UNL1       -0.3501
     11 C         139.6872  146.3259  161.7433 C.3     1  UNL1        0.1636
     12 C         140.3636  145.2891  162.5903 C.3     1  UNL1        0.1231
     13 O         143.3756  142.4311  167.4605 O.2     1  UNL1       -0.2697
     14 C         142.1580  142.1618  166.6268 C.2     1  UNL1        0.2525
     15 N         140.8275  141.9544  167.2875 N.am    1  UNL1       -0.2790
     16 H         140.0284  141.7776  166.7402 H       1  UNL1        0.1552
     17 C         140.7144  142.0163  168.7820 C.ar    1  UNL1        0.0734
     18 C         140.9854  140.7925  169.6059 C.ar    1  UNL1        0.0388
     19 C         140.8723  140.8545  171.1003 C.ar    1  UNL1        0.1235
     20 N         140.4882  142.1402  171.7708 N.ar    1  UNL1       -0.1463
     21 N         140.2172  143.3639  170.9468 N.ar    1  UNL1       -0.1450
     22 C         140.3303  143.3020  169.4524 C.ar    1  UNL1        0.1368
     23 O         143.7371  139.9641  165.3318 O.3     1  UNL1       -0.4705
     24 C         142.9960  138.7231  165.7326 C.3     1  UNL1        0.2320
     25 C         141.6769  138.3989  165.0964 C.ar    1  UNL1        0.0212
     26 C         141.6351  137.6655  163.7886 C.ar    1  UNL1       -0.0007
     27 C         140.3159  137.3412  163.1524 C.ar    1  UNL1       -0.0002
     28 C         139.0386  137.7503  163.8240 C.ar    1  UNL1       -0.0000
     29 C         139.0804  138.4837  165.1318 C.ar    1  UNL1       -0.0002
     30 C         140.3995  138.8080  165.7680 C.ar    1  UNL1       -0.0007
@<TRIPOS>BOND
     1    13    14    2
     2    14    15   am
     3    15    17    1
     4    17    18   ar
     5    18    19   ar
     6    19    20   ar
     7    20    21   ar
     8    21    22   ar
     9    14     1    1
    10     1     2   ar
    11     2     3   ar
    12     3     7    1
    13     7     8    1
    14     8     9    1
    15     9    10    1
    16    10    11    1
    17    11    12    1
    18     3     4   ar
    19     4     5   ar
    20     5     6   ar
    21     6    23    1
    22    23    24    1
    23    24    25    1
    24    25    26   ar
    25    26    27   ar
    26    27    28   ar
    27    28    29   ar
    28    29    30   ar
    29    22    17   ar
    30     6     1   ar
    31    30    25   ar
    32    12     7    1
    33    15    16    1
@<TRIPOS>MOLECULE
*****
 30 33 0 0 0
SMALL
GASTEIGER

@<TRIPOS>ATOM
      1 C         139.5148  141.3977  165.1959 C.ar    1  UNL1        0.0888
      2 C         140.2353  141.4870  166.5085 C.ar    1  UNL1        0.0221
      3 C         139.8667  140.5625  167.6308 C.ar    1  UNL1        0.0483
      4 C         138.7777  139.5488  167.4405 C.ar    1  UNL1        0.0176
      5 C         138.0572  139.4595  166.1279 C.ar    1  UNL1        0.0383
      6 C         138.4257  140.3839  165.0057 C.ar    1  UNL1        0.1434
      7 N         140.5873  140.6518  168.9434 N.pl3   1  UNL1       -0.3028
      8 C         141.8090  139.8163  169.1867 C.3     1  UNL1        0.1231
      9 C         142.5295  139.9055  170.4992 C.3     1  UNL1        0.1636
     10 O         142.0283  140.8303  171.5685 O.3     1  UNL1       -0.3501
     11 C         140.8065  141.6659  171.3253 C.3     1  UNL1        0.1636
     12 C         140.0860  141.5766  170.0127 C.3     1  UNL1        0.1231
     13 O         141.3231  142.6593  163.8218 O.2     1  UNL1       -0.2697
     14 C         139.8834  142.3221  164.0736 C.2     1  UNL1        0.2525
     15 N         138.8122  142.9093  163.2031 N.am    1  UNL1       -0.2790
     16 H         137.8672  142.6880  163.3684 H       1  UNL1        0.1552
     17 C         139.1808  143.8338  162.0808 C.ar    1  UNL1        0.0734
     18 C         139.5719  143.2736  160.7454 C.ar    1  UNL1        0.0388
     19 C         139.9404  144.1981  159.6232 C.ar    1  UNL1        0.1235
     20 N         139.9178  145.6827  159.8363 N.ar    1  UNL1       -0.1463
     21 N         139.5267  146.2429  161.1716 N.ar    1  UNL1       -0.1450
     22 C         139.1582  145.3184  162.2939 C.ar    1  UNL1        0.1368
     23 O         137.7052  140.2946  163.6930 O.3     1  UNL1       -0.4705
     24 C         138.1406  139.2927  162.6651 C.3     1  UNL1        0.2320
     25 C         139.5707  138.8430  162.6148 C.ar    1  UNL1        0.0212
     26 C         140.5672  139.6024  161.7900 C.ar    1  UNL1       -0.0007
     27 C         141.9974  139.1526  161.7398 C.ar    1  UNL1       -0.0002
     28 C         142.4309  137.9434  162.5143 C.ar    1  UNL1       -0.0000
     29 C         141.4344  137.1840  163.3390 C.ar    1  UNL1       -0.0002
     30 C         140.0043  137.6337  163.3893 C.ar    1  UNL1       -0.0007
@<TRIPOS>BOND
     1    13    14    2
     2    14    15   am
     3    15    17    1
     4    17    18   ar
     5    18    19   ar
     6    19    20   ar
     7    20    21   ar
     8    21    22   ar
     9    14     1    1
    10     1     2   ar
    11     2     3   ar
    12     3     7    1
    13     7     8    1
    14     8     9    1
    15     9    10    1
    16    10    11    1
    17    11    12    1
    18     3     4   ar
    19     4     5   ar
    20     5     6   ar
    21     6    23    1
    22    23    24    1
    23    24    25    1
    24    25    26   ar
    25    26    27   ar
    26    27    28   ar
    27    28    29   ar
    28    29    30   ar
    29    22    17   ar
    30     6     1   ar
    31    30    25   ar
    32    12     7    1
    33    15    16    1
@<TRIPOS>MOLECULE
*****
 30 33 0 0 0
SMALL
GASTEIGER

@<TRIPOS>ATOM
      1 C         139.4831  141.8027  165.3396 C.ar    1  UNL1        0.0888
      2 C         139.7665  142.8750  164.3297 C.ar    1  UNL1        0.0221
      3 C         139.0465  142.8750  163.0138 C.ar    1  UNL1        0.0483
      4 C         138.0431  141.8028  162.7078 C.ar    1  UNL1        0.0176
      5 C         137.7597  140.7306  163.7177 C.ar    1  UNL1        0.0383
      6 C         138.4797  140.7305  165.0336 C.ar    1  UNL1        0.1434
      7 N         139.3299  143.9473  162.0038 N.pl3   1  UNL1       -0.3028
      8 C         139.6955  143.5752  160.5975 C.3     1  UNL1        0.1231
      9 C         139.9789  144.6474  159.5875 C.3     1  UNL1        0.1636
     10 O         139.8966  146.0917  159.9840 O.3     1  UNL1       -0.3501
     11 C         139.5309  146.4638  161.3903 C.3     1  UNL1        0.1636
     12 C         139.2476  145.3916  162.4003 C.3     1  UNL1        0.1231
     13 O         141.5391  142.4732  166.7795 O.2     1  UNL1       -0.2697
     14 C         140.2031  141.8026  166.6555 C.2     1  UNL1        0.2525
     15 N         139.5871  141.1319  167.8474 N.am    1  UNL1       -0.2790
     16 H         138.7102  140.6918  167.7660 H       1  UNL1        0.1552
     17 C         140.3071  141.1318  169.1634 C.ar    1  UNL1        0.0734
     18 C         141.4766  140.2175  169.3783 C.ar    1  UNL1        0.0388
     19 C         142.1965  140.2175  170.6942 C.ar    1  UNL1        0.1235
     20 N         141.7469  141.1317  171.7952 N.ar    1  UNL1       -0.1463
     21 N         140.5774  142.0459  171.5802 N.ar    1  UNL1       -0.1450
     22 C         139.8575  142.0460  170.2643 C.ar    1  UNL1        0.1368
     23 O         138.1963  139.6582  166.0435 O.3     1  UNL1       -0.4705
     24 C         138.8881  138.3311  165.9425 C.3     1  UNL1        0.2320
     25 C         140.0588  138.1639  165.0198 C.ar    1  UNL1        0.0212
     26 C         141.4336  138.5560  165.4737 C.ar    1  UNL1       -0.0007
     27 C         142.6043  138.3888  164.5509 C.ar    1  UNL1       -0.0002
     28 C         142.4002  137.8294  163.1742 C.ar    1  UNL1       -0.0000
     29 C         141.0254  137.4372  162.7202 C.ar    1  UNL1       -0.0002
     30 C         139.8547  137.6044  163.6430 C.ar    1  UNL1       -0.0007
@<TRIPOS>BOND
     1    13    14    2
     2    14    15   am
     3    15    17    1
     4    17    18   ar
     5    18    19   ar
     6    19    20   ar
     7    20    21   ar
     8    21    22   ar
     9    14     1    1
    10     1     2   ar
    11     2     3   ar
    12     3     7    1
    13     7     8    1
    14     8     9    1
    15     9    10    1
    16    10    11    1
    17    11    12    1
    18     3     4   ar
    19     4     5   ar
    20     5     6   ar
    21     6    23    1
    22    23    24    1
    23    24    25    1
    24    25    26   ar
    25    26    27   ar
    26    27    28   ar
    27    28    29   ar
    28    29    30   ar
    29    22    17   ar
    30     6     1   ar
    31    30    25   ar
    32    12     7    1
    33    15    16    1
@<TRIPOS>MOLECULE
*****
 30 33 0 0 0
SMALL
GASTEIGER

@<TRIPOS>ATOM
      1 C         142.9029  141.1569  164.8853 C.ar    1  UNL1        0.0888
      2 C         142.6339  141.6407  166.2794 C.ar    1  UNL1        0.0221
      3 C         142.6043  140.6658  167.4190 C.ar    1  UNL1        0.0483
      4 C         142.8437  139.2071  167.1644 C.ar    1  UNL1        0.0176
      5 C         143.1128  138.7233  165.7703 C.ar    1  UNL1        0.0383
      6 C         143.1424  139.6982  164.6308 C.ar    1  UNL1        0.1434
      7 N         142.3352  141.1496  168.8131 N.pl3   1  UNL1       -0.3028
      8 C         142.9189  142.4495  169.2816 C.3     1  UNL1        0.1231
      9 C         142.6499  142.9333  170.6757 C.3     1  UNL1        0.1636
     10 O         141.7972  142.1171  171.6013 O.3     1  UNL1       -0.3501
     11 C         141.2135  140.8172  171.1328 C.3     1  UNL1        0.1636
     12 C         141.4825  140.3334  169.7387 C.3     1  UNL1        0.1231
     13 O         143.8919  143.2847  163.7697 O.2     1  UNL1       -0.2697
     14 C         142.9326  142.1319  163.7457 C.2     1  UNL1        0.2525
     15 N         142.0028  141.9540  162.5821 N.am    1  UNL1       -0.2790
     16 H         141.3732  141.1973  162.5664 H       1  UNL1        0.1552
     17 C         142.0325  142.9289  161.4425 C.ar    1  UNL1        0.0734
     18 C         141.0838  144.0906  161.4245 C.ar    1  UNL1        0.0388
     19 C         141.1134  145.0655  160.2849 C.ar    1  UNL1        0.1235
     20 N         142.0918  144.8786  159.1633 N.ar    1  UNL1       -0.1463
     21 N         143.0405  143.7170  159.1814 N.ar    1  UNL1       -0.1450
     22 C         143.0108  142.7421  160.3210 C.ar    1  UNL1        0.1368
     23 O         143.4114  139.2144  163.2366 O.3     1  UNL1       -0.4705
     24 C         142.7209  137.9860  162.7227 C.3     1  UNL1        0.2320
     25 C         141.2425  138.0068  162.4702 C.ar    1  UNL1        0.0212
     26 C         140.2911  137.5856  163.5507 C.ar    1  UNL1       -0.0007
     27 C         138.8126  137.6064  163.2982 C.ar    1  UNL1       -0.0002
     28 C         138.2856  138.0484  161.9652 C.ar    1  UNL1       -0.0000
     29 C         139.2370  138.4696  160.8847 C.ar    1  UNL1       -0.0002
     30 C         140.7154  138.4488  161.1372 C.ar    1  UNL1       -0.0007
@<TRIPOS>BOND
     1    13    14    2
     2    14    15   am
     3    15    17    1
     4    17    18   ar
     5    18    19   ar
     6    19    20   ar
     7    20    21   ar
     8    21    22   ar
     9    14     1    1
    10     1     2   ar
    11     2     3   ar
    12     3     7    1
    13     7     8    1
    14     8     9    1
    15     9    10    1
    16    10    11    1
    17    11    12    1
    18     3     4   ar
    19     4     5   ar
    20     5     6   ar
    21     6    23    1
    22    23    24    1
    23    24    25    1
    24    25    26   ar
    25    26    27   ar
    26    27    28   ar
    27    28    29   ar
    28    29    30   ar
    29    22    17   ar
    30     6     1   ar
    31    30    25   ar
    32    12     7    1
    33    15    16    1
@<TRIPOS>MOLECULE
*****
 30 33 0 0 0
SMALL
GASTEIGER

@<TRIPOS>ATOM
      1 C         141.1877  139.7799  165.0886 C.ar    1  UNL1        0.0888
      2 C         140.8497  140.4337  166.3956 C.ar    1  UNL1        0.0221
      3 C         141.6501  140.1138  167.6232 C.ar    1  UNL1        0.0483
      4 C         142.7884  139.1401  167.5438 C.ar    1  UNL1        0.0176
      5 C         143.1263  138.4863  166.2367 C.ar    1  UNL1        0.0383
      6 C         142.3259  138.8063  165.0091 C.ar    1  UNL1        0.1434
      7 N         141.3122  140.7675  168.9303 N.pl3   1  UNL1       -0.3028
      8 C         142.0786  140.4083  170.1687 C.3     1  UNL1        0.1231
      9 C         141.7407  141.0620  171.4758 C.3     1  UNL1        0.1636
     10 O         140.6365  142.0749  171.5445 O.3     1  UNL1       -0.3501
     11 C         139.8701  142.4341  170.3061 C.3     1  UNL1        0.1636
     12 C         140.2080  141.7804  168.9990 C.3     1  UNL1        0.1231
     13 O         139.8138  141.4735  163.6764 O.2     1  UNL1       -0.2697
     14 C         140.3873  140.0998  163.8609 C.2     1  UNL1        0.2525
     15 N         140.1605  139.0461  162.8178 N.am    1  UNL1       -0.2790
     16 H         140.5369  138.1445  162.9389 H       1  UNL1        0.1552
     17 C         139.3601  139.3660  161.5901 C.ar    1  UNL1        0.0734
     18 C         140.0499  139.8566  160.3518 C.ar    1  UNL1        0.0388
     19 C         139.2496  140.1764  159.1242 C.ar    1  UNL1        0.1235
     20 N         137.7594  140.0057  159.1349 N.ar    1  UNL1       -0.1463
     21 N         137.0695  139.5151  160.3732 N.ar    1  UNL1       -0.1450
     22 C         137.8699  139.1952  161.6008 C.ar    1  UNL1        0.1368
     23 O         142.6638  138.1525  163.7020 O.3     1  UNL1       -0.4705
     24 C         143.7986  138.6764  162.8727 C.3     1  UNL1        0.2320
     25 C         144.1103  140.1436  162.8695 C.ar    1  UNL1        0.0212
     26 C         145.2108  140.6785  163.7371 C.ar    1  UNL1       -0.0007
     27 C         145.5225  142.1458  163.7339 C.ar    1  UNL1       -0.0002
     28 C         144.7336  143.0782  162.8631 C.ar    1  UNL1       -0.0000
     29 C         143.6331  142.5433  161.9955 C.ar    1  UNL1       -0.0002
     30 C         143.3214  141.0761  161.9987 C.ar    1  UNL1       -0.0007
@<TRIPOS>BOND
     1    13    14    2
     2    14    15   am
     3    15    17    1
     4    17    18   ar
     5    18    19   ar
     6    19    20   ar
     7    20    21   ar
     8    21    22   ar
     9    14     1    1
    10     1     2   ar
    11     2     3   ar
    12     3     7    1
    13     7     8    1
    14     8     9    1
    15     9    10    1
    16    10    11    1
    17    11    12    1
    18     3     4   ar
    19     4     5   ar
    20     5     6   ar
    21     6    23    1
    22    23    24    1
    23    24    25    1
    24    25    26   ar
    25    26    27   ar
    26    27    28   ar
    27    28    29   ar
    28    29    30   ar
    29    22    17   ar
    30     6     1   ar
    31    30    25   ar
    32    12     7    1
    33    15    16    1
@<TRIPOS>MOLECULE
*****
 30 33 0 0 0
SMALL
GASTEIGER

@<TRIPOS>ATOM
      1 C         140.4918  139.9668  164.9793 C.ar    1  UNL1        0.0888
      2 C         141.0965  140.2390  166.3247 C.ar    1  UNL1        0.0221
      3 C         140.2726  140.0661  167.5661 C.ar    1  UNL1        0.0483
      4 C         138.8439  139.6208  167.4621 C.ar    1  UNL1        0.0176
      5 C         138.2393  139.3485  166.1167 C.ar    1  UNL1        0.0383
      6 C         139.0632  139.5215  164.8753 C.ar    1  UNL1        0.1434
      7 N         140.8772  140.3383  168.9117 N.pl3   1  UNL1       -0.3028
      8 C         140.1828  141.2555  169.8742 C.3     1  UNL1        0.1231
      9 C         140.7873  141.5278  171.2197 C.3     1  UNL1        0.1636
     10 O         142.0864  140.8829  171.6026 O.3     1  UNL1       -0.3501
     11 C         142.7808  139.9658  170.6400 C.3     1  UNL1        0.1636
     12 C         142.1762  139.6935  169.2945 C.3     1  UNL1        0.1231
     13 O         142.1891  141.3490  163.5797 O.2     1  UNL1       -0.2697
     14 C         141.3158  140.1397  163.7378 C.2     1  UNL1        0.2525
     15 N         141.2664  139.1034  162.6545 N.am    1  UNL1       -0.2790
     16 H         140.6933  138.3098  162.7583 H       1  UNL1        0.1552
     17 C         142.0904  139.2764  161.4130 C.ar    1  UNL1        0.0734
     18 C         141.5126  139.9810  160.2215 C.ar    1  UNL1        0.0388
     19 C         142.3366  140.1539  158.9801 C.ar    1  UNL1        0.1235
     20 N         143.7383  139.6223  158.9302 N.ar    1  UNL1       -0.1463
     21 N         144.3161  138.9177  160.1216 N.ar    1  UNL1       -0.1450
     22 C         143.4921  138.7448  161.3631 C.ar    1  UNL1        0.1368
     23 O         138.4586  139.2492  163.5298 O.3     1  UNL1       -0.4705
     24 C         137.7178  140.3349  162.8069 C.3     1  UNL1        0.2320
     25 C         138.0971  141.7706  163.0181 C.ar    1  UNL1        0.0212
     26 C         139.0150  142.4543  162.0485 C.ar    1  UNL1       -0.0007
     27 C         139.3944  143.8901  162.2598 C.ar    1  UNL1       -0.0002
     28 C         138.8558  144.6422  163.4406 C.ar    1  UNL1       -0.0000
     29 C         137.9379  143.9585  164.4102 C.ar    1  UNL1       -0.0002
     30 C         137.5586  142.5228  164.1990 C.ar    1  UNL1       -0.0007
@<TRIPOS>BOND
     1    13    14    2
     2    14    15   am
     3    15    17    1
     4    17    18   ar
     5    18    19   ar
     6    19    20   ar
     7    20    21   ar
     8    21    22   ar
     9    14     1    1
    10     1     2   ar
    11     2     3   ar
    12     3     7    1
    13     7     8    1
    14     8     9    1
    15     9    10    1
    16    10    11    1
    17    11    12    1
    18     3     4   ar
    19     4     5   ar
    20     5     6   ar
    21     6    23    1
    22    23    24    1
    23    24    25    1
    24    25    26   ar
    25    26    27   ar
    26    27    28   ar
    27    28    29   ar
    28    29    30   ar
    29    22    17   ar
    30     6     1   ar
    31    30    25   ar
    32    12     7    1
    33    15    16    1
@<TRIPOS>MOLECULE
*****
 30 33 0 0 0
SMALL
GASTEIGER

@<TRIPOS>ATOM
      1 C         142.2194  142.0138  165.0953 C.ar    1  UNL1        0.0888
      2 C         141.6856  142.2980  166.4680 C.ar    1  UNL1        0.0221
      3 C         141.9621  141.3445  167.5924 C.ar    1  UNL1        0.0483
      4 C         142.7725  140.1069  167.3443 C.ar    1  UNL1        0.0176
      5 C         143.3063  139.8227  165.9716 C.ar    1  UNL1        0.0383
      6 C         143.0298  140.7762  164.8471 C.ar    1  UNL1        0.1434
      7 N         141.4283  141.6287  168.9652 N.pl3   1  UNL1       -0.3028
      8 C         141.8635  140.7872  170.1281 C.3     1  UNL1        0.1231
      9 C         141.3297  141.0713  171.5008 C.3     1  UNL1        0.1636
     10 O         140.3607  142.1969  171.7106 O.3     1  UNL1       -0.3501
     11 C         139.9256  143.0385  170.5476 C.3     1  UNL1        0.1636
     12 C         140.4593  142.7543  169.1749 C.3     1  UNL1        0.1231
     13 O         143.0517  143.8075  163.4101 O.2     1  UNL1       -0.2697
     14 C         141.9428  142.9672  163.9708 C.2     1  UNL1        0.2525
     15 N         140.5575  143.0803  163.4070 N.am    1  UNL1       -0.2790
     16 H         139.8297  142.5288  163.7750 H       1  UNL1        0.1552
     17 C         140.2809  144.0338  162.2824 C.ar    1  UNL1        0.0734
     18 C         140.5999  143.6408  160.8704 C.ar    1  UNL1        0.0388
     19 C         140.3233  144.5943  159.7459 C.ar    1  UNL1        0.1235
     20 N         139.7278  145.9406  160.0335 N.ar    1  UNL1       -0.1463
     21 N         139.4088  146.3336  161.4455 N.ar    1  UNL1       -0.1450
     22 C         139.6854  145.3801  162.5700 C.ar    1  UNL1        0.1368
     23 O         143.5636  140.4920  163.4744 O.3     1  UNL1       -0.4705
     24 C         142.7194  139.7517  162.4798 C.3     1  UNL1        0.2320
     25 C         141.4542  139.0789  162.9234 C.ar    1  UNL1        0.0212
     26 C         141.5153  137.7552  163.6262 C.ar    1  UNL1       -0.0007
     27 C         140.2500  137.0825  164.0698 C.ar    1  UNL1       -0.0002
     28 C         138.9238  137.7335  163.8104 C.ar    1  UNL1       -0.0000
     29 C         138.8627  139.0572  163.1075 C.ar    1  UNL1       -0.0002
     30 C         140.1279  139.7299  162.6640 C.ar    1  UNL1       -0.0007
@<TRIPOS>BOND
     1    13    14    2
     2    14    15   am
     3    15    17    1
     4    17    18   ar
     5    18    19   ar
     6    19    20   ar
     7    20    21   ar
     8    21    22   ar
     9    14     1    1
    10     1     2   ar
    11     2     3   ar
    12     3     7    1
    13     7     8    1
    14     8     9    1
    15     9    10    1
    16    10    11    1
    17    11    12    1
    18     3     4   ar
    19     4     5   ar
    20     5     6   ar
    21     6    23    1
    22    23    24    1
    23    24    25    1
    24    25    26   ar
    25    26    27   ar
    26    27    28   ar
    27    28    29   ar
    28    29    30   ar
    29    22    17   ar
    30     6     1   ar
    31    30    25   ar
    32    12     7    1
    33    15    16    1
@<TRIPOS>MOLECULE
*****
 30 33 0 0 0
SMALL
GASTEIGER

@<TRIPOS>ATOM
      1 C         140.5187  139.5733  164.2717 C.ar    1  UNL1        0.0888
      2 C         139.8386  139.8622  162.9664 C.ar    1  UNL1        0.0221
      3 C         140.1890  139.0644  161.7455 C.ar    1  UNL1        0.0483
      4 C         141.2195  137.9777  161.8299 C.ar    1  UNL1        0.0176
      5 C         141.8997  137.6889  163.1352 C.ar    1  UNL1        0.0383
      6 C         141.5493  138.4867  164.3561 C.ar    1  UNL1        0.1434
      7 N         139.5088  139.3532  160.4401 N.pl3   1  UNL1       -0.3028
      8 C         140.0550  138.7788  159.1666 C.3     1  UNL1        0.1231
      9 C         139.3749  139.0676  157.8613 C.3     1  UNL1        0.1636
     10 O         138.1485  139.9307  157.8294 O.3     1  UNL1       -0.3501
     11 C         137.6023  140.5051  159.1029 C.3     1  UNL1        0.1636
     12 C         138.2825  140.2163  160.4082 C.3     1  UNL1        0.1231
     13 O         139.5510  141.7306  165.3487 O.2     1  UNL1       -0.2697
     14 C         140.1684  140.3712  165.4928 C.2     1  UNL1        0.2525
     15 N         140.4353  139.8095  166.8577 N.am    1  UNL1       -0.2790
     16 H         140.8405  138.9172  166.9523 H       1  UNL1        0.1552
     17 C         140.0849  140.6073  168.0787 C.ar    1  UNL1        0.0734
     18 C         140.7112  141.9520  168.3013 C.ar    1  UNL1        0.0388
     19 C         140.3608  142.7497  169.5222 C.ar    1  UNL1        0.1235
     20 N         139.3841  142.2028  170.5207 N.ar    1  UNL1       -0.1463
     21 N         138.7578  140.8582  170.2981 N.ar    1  UNL1       -0.1450
     22 C         139.1082  140.0604  169.0772 C.ar    1  UNL1        0.1368
     23 O         142.2295  138.1979  165.6615 O.3     1  UNL1       -0.4705
     24 C         143.6278  138.6846  165.9025 C.3     1  UNL1        0.2320
     25 C         144.0924  139.9686  165.2817 C.ar    1  UNL1        0.0212
     26 C         145.1199  139.9447  164.1891 C.ar    1  UNL1       -0.0007
     27 C         145.5845  141.2288  163.5684 C.ar    1  UNL1       -0.0002
     28 C         145.0216  142.5367  164.0401 C.ar    1  UNL1       -0.0000
     29 C         143.9941  142.5605  165.1327 C.ar    1  UNL1       -0.0002
     30 C         143.5295  141.2765  165.7534 C.ar    1  UNL1       -0.0007
@<TRIPOS>BOND
     1    13    14    2
     2    14    15   am
     3    15    17    1
     4    17    18   ar
     5    18    19   ar
     6    19    20   ar
     7    20    21   ar
     8    21    22   ar
     9    14     1    1
    10     1     2   ar
    11     2     3   ar
    12     3     7    1
    13     7     8    1
    14     8     9    1
    15     9    10    1
    16    10    11    1
    17    11    12    1
    18     3     4   ar
    19     4     5   ar
    20     5     6   ar
    21     6    23    1
    22    23    24    1
    23    24    25    1
    24    25    26   ar
    25    26    27   ar
    26    27    28   ar
    27    28    29   ar
    28    29    30   ar
    29    22    17   ar
    30     6     1   ar
    31    30    25   ar
    32    12     7    1
    33    15    16    1
@<TRIPOS>MOLECULE
*****
 30 33 0 0 0
SMALL
GASTEIGER

@<TRIPOS>ATOM
      1 C         142.8149  141.2124  164.7525 C.ar    1  UNL1        0.0888
      2 C         142.0118  140.8286  165.9598 C.ar    1  UNL1        0.0221
      3 C         142.2458  141.5236  167.2683 C.ar    1  UNL1        0.0483
      4 C         143.2831  142.6025  167.3694 C.ar    1  UNL1        0.0176
      5 C         144.0862  142.9863  166.1621 C.ar    1  UNL1        0.0383
      6 C         143.8521  142.2913  164.8537 C.ar    1  UNL1        0.1434
      7 N         141.4427  141.1398  168.4757 N.pl3   1  UNL1       -0.3028
      8 C         142.0739  141.1677  169.8361 C.3     1  UNL1        0.1231
      9 C         141.2708  140.7839  171.0435 C.3     1  UNL1        0.1636
     10 O         139.8366  140.3723  170.8904 O.3     1  UNL1       -0.3501
     11 C         139.2054  140.3445  169.5299 C.3     1  UNL1        0.1636
     12 C         140.0085  140.7282  168.3226 C.3     1  UNL1        0.1231
     13 O         141.1819  140.2133  162.9960 O.2     1  UNL1       -0.2697
     14 C         142.5808  140.5173  163.4440 C.2     1  UNL1        0.2525
     15 N         143.7456  140.1264  162.5836 N.am    1  UNL1       -0.2790
     16 H         144.6637  140.3259  162.8776 H       1  UNL1        0.1552
     17 C         143.5115  139.4313  161.2750 C.ar    1  UNL1        0.0734
     18 C         143.4821  140.2218  160.0006 C.ar    1  UNL1        0.0388
     19 C         143.2481  139.5267  158.6922 C.ar    1  UNL1        0.1235
     20 N         143.0434  138.0411  158.6582 N.ar    1  UNL1       -0.1463
     21 N         143.0728  137.2506  159.9326 N.ar    1  UNL1       -0.1450
     22 C         143.3068  137.9457  161.2410 C.ar    1  UNL1        0.1368
     23 O         144.6553  142.6751  163.6463 O.3     1  UNL1       -0.4705
     24 C         144.2743  143.8850  162.8457 C.3     1  UNL1        0.2320
     25 C         142.8312  144.1597  162.5423 C.ar    1  UNL1        0.0212
     26 C         142.0470  145.0964  163.4126 C.ar    1  UNL1       -0.0007
     27 C         140.6038  145.3711  163.1092 C.ar    1  UNL1       -0.0002
     28 C         139.9451  144.7091  161.9354 C.ar    1  UNL1       -0.0000
     29 C         140.7293  143.7723  161.0651 C.ar    1  UNL1       -0.0002
     30 C         142.1724  143.4976  161.3685 C.ar    1  UNL1       -0.0007
@<TRIPOS>BOND
     1    13    14    2
     2    14    15   am
     3    15    17    1
     4    17    18   ar
     5    18    19   ar
     6    19    20   ar
     7    20    21   ar
     8    21    22   ar
     9    14     1    1
    10     1     2   ar
    11     2     3   ar
    12     3     7    1
    13     7     8    1
    14     8     9    1
    15     9    10    1
    16    10    11    1
    17    11    12    1
    18     3     4   ar
    19     4     5   ar
    20     5     6   ar
    21     6    23    1
    22    23    24    1
    23    24    25    1
    24    25    26   ar
    25    26    27   ar
    26    27    28   ar
    27    28    29   ar
    28    29    30   ar
    29    22    17   ar
    30     6     1   ar
    31    30    25   ar
    32    12     7    1
    33    15    16    1
