@<TRIPOS>MOLECULE
*****
 32 35 0 0 0
SMALL
GASTEIGER

@<TRIPOS>ATOM
      1 C         141.8164  139.4593  161.5378 C.ar    1  UNL1        0.0674
      2 C         141.7786  137.9701  161.7130 C.ar    1  UNL1        0.1133
      3 N         140.9373  137.3636  162.7966 N.ar    1  UNL1       -0.2425
      4 C         140.1339  138.2463  163.7051 C.ar    1  UNL1        0.0825
      5 C         139.2926  137.6397  164.7888 C.ar    1  UNL1        0.0230
      6 C         138.4891  138.5223  165.6973 C.ar    1  UNL1        0.0741
      7 C         138.5270  140.0116  165.5220 C.ar    1  UNL1        0.0183
      8 C         139.3682  140.6182  164.4384 C.ar    1  UNL1        0.0463
      9 C         140.1717  139.7355  163.5299 C.ar    1  UNL1        0.0320
     10 C         141.0130  140.3420  162.4463 C.ar    1  UNL1        0.0188
     11 C         145.1816  141.8856  157.2031 C.3     1  UNL1        0.0897
     12 N         144.3403  141.2791  158.2868 N.3     1  UNL1       -0.2686
     13 C         144.2036  141.9752  159.6084 C.3     1  UNL1        0.0938
     14 C         143.3623  141.3686  160.6921 C.3     1  UNL1        0.1082
     15 N         142.6577  140.0659  160.4541 N.pl3   1  UNL1       -0.3034
     16 C         142.7945  139.3698  159.1325 C.3     1  UNL1        0.1082
     17 C         143.6357  139.9763  158.0488 C.3     1  UNL1        0.0938
     18 C         137.6478  137.9158  166.7809 C.3     1  UNL1        0.4187
     19 F         136.8065  137.3093  167.8646 F       1  UNL1       -0.1659
     20 F         137.5366  139.2562  167.4448 F       1  UNL1       -0.1659
     21 F         137.7590  136.5754  166.1170 F       1  UNL1       -0.1659
     22 N         139.4061  142.1074  164.2632 N.pl3   1  UNL1       -0.3290
     23 H         139.3035  142.5003  163.3664 H       1  UNL1        0.1471
     24 C         139.6003  142.9980  165.4545 C.3     1  UNL1        0.1143
     25 C         140.6923  142.7047  166.4402 C.ar    1  UNL1       -0.0020
     26 C         142.1037  142.5263  165.9648 C.ar    1  UNL1       -0.0026
     27 C         143.1957  142.2329  166.9504 C.ar    1  UNL1        0.0004
     28 C         142.8763  142.1179  168.4115 C.ar    1  UNL1        0.0103
     29 C         141.4649  142.2963  168.8869 C.ar    1  UNL1        0.0682
     30 C         140.3728  142.5897  167.9012 C.ar    1  UNL1        0.0077
     31 C         141.1454  142.1814  170.3480 C.1     1  UNL1        0.1004
     32 N         140.8260  142.0664  171.8090 N.1     1  UNL1       -0.1908
@<TRIPOS>BOND
     1    11    12    1
     2    12    13    1
     3    13    14    1
     4    14    15    1
     5    15     1    1
     6     1     2   ar
     7     2     3   ar
     8     3     4   ar
     9     4     5   ar
    10     5     6   ar
    11     6    18    1
    12    18    19    1
    13    18    20    1
    14    18    21    1
    15     6     7   ar
    16     7     8   ar
    17     8    22    1
    18    22    24    1
    19    24    25    1
    20    25    26   ar
    21    26    27   ar
    22    27    28   ar
    23    28    29   ar
    24    29    31    1
    25    31    32    3
    26    29    30   ar
    27     8     9   ar
    28     9    10   ar
    29    15    16    1
    30    16    17    1
    31    17    12    1
    32    10     1   ar
    33     9     4   ar
    34    30    25   ar
    35    22    23    1
@<TRIPOS>MOLECULE
*****
 32 35 0 0 0
SMALL
GASTEIGER

@<TRIPOS>ATOM
      1 C         139.9656  142.5604  162.2053 C.ar    1  UNL1        0.0674
      2 C         139.3240  143.2381  163.3795 C.ar    1  UNL1        0.1133
      3 N         138.7506  142.4184  164.4973 N.ar    1  UNL1       -0.2425
      4 C         138.8190  140.9211  164.4407 C.ar    1  UNL1        0.0825
      5 C         138.2456  140.1014  165.5586 C.ar    1  UNL1        0.0230
      6 C         138.3139  138.6040  165.5020 C.ar    1  UNL1        0.0741
      7 C         138.9557  137.9263  164.3277 C.ar    1  UNL1        0.0183
      8 C         139.5290  138.7460  163.2100 C.ar    1  UNL1        0.0463
      9 C         139.4606  140.2434  163.2665 C.ar    1  UNL1        0.0320
     10 C         140.0340  141.0630  162.1488 C.ar    1  UNL1        0.0188
     11 C         142.2590  145.8391  157.7342 C.3     1  UNL1        0.0897
     12 N         141.6857  145.0195  158.8519 N.3     1  UNL1       -0.2686
     13 C         142.2289  143.6497  159.1325 C.3     1  UNL1        0.0938
     14 C         141.6555  142.8300  160.2503 C.3     1  UNL1        0.1082
     15 N         140.5390  143.3801  161.0875 N.pl3   1  UNL1       -0.3034
     16 C         139.9959  144.7499  160.8069 C.3     1  UNL1        0.1082
     17 C         140.5692  145.5695  159.6891 C.3     1  UNL1        0.0938
     18 C         137.7406  137.7843  166.6198 C.3     1  UNL1        0.4187
     19 F         137.1672  136.9646  167.7375 F       1  UNL1       -0.1659
     20 F         138.1140  136.5281  165.8901 F       1  UNL1       -0.1659
     21 F         137.3672  139.0405  167.3494 F       1  UNL1       -0.1659
     22 N         140.1707  138.0683  162.0357 N.pl3   1  UNL1       -0.3290
     23 H         139.6513  137.9100  161.2144 H       1  UNL1        0.1471
     24 C         141.6037  137.6317  162.1127 C.3     1  UNL1        0.1143
     25 C         142.5640  138.3639  163.0024 C.ar    1  UNL1       -0.0020
     26 C         143.6694  139.1806  162.4015 C.ar    1  UNL1       -0.0026
     27 C         144.6298  139.9129  163.2912 C.ar    1  UNL1        0.0004
     28 C         144.4848  139.8284  164.7818 C.ar    1  UNL1        0.0103
     29 C         143.3794  139.0117  165.3827 C.ar    1  UNL1        0.0682
     30 C         142.4190  138.2795  164.4930 C.ar    1  UNL1        0.0077
     31 C         143.2343  138.9273  166.8733 C.1     1  UNL1        0.1004
     32 N         143.0893  138.8428  168.3638 N.1     1  UNL1       -0.1908
@<TRIPOS>BOND
     1    11    12    1
     2    12    13    1
     3    13    14    1
     4    14    15    1
     5    15     1    1
     6     1     2   ar
     7     2     3   ar
     8     3     4   ar
     9     4     5   ar
    10     5     6   ar
    11     6    18    1
    12    18    19    1
    13    18    20    1
    14    18    21    1
    15     6     7   ar
    16     7     8   ar
    17     8    22    1
    18    22    24    1
    19    24    25    1
    20    25    26   ar
    21    26    27   ar
    22    27    28   ar
    23    28    29   ar
    24    29    31    1
    25    31    32    3
    26    29    30   ar
    27     8     9   ar
    28     9    10   ar
    29    15    16    1
    30    16    17    1
    31    17    12    1
    32    10     1   ar
    33     9     4   ar
    34    30    25   ar
    35    22    23    1
@<TRIPOS>MOLECULE
*****
 32 35 0 0 0
SMALL
GASTEIGER

@<TRIPOS>ATOM
      1 C         141.0421  138.5537  161.4404 C.ar    1  UNL1        0.0674
      2 C         142.1607  138.1044  162.3331 C.ar    1  UNL1        0.1133
      3 N         142.0490  138.2750  163.8191 N.ar    1  UNL1       -0.2425
      4 C         140.8187  138.8950  164.4125 C.ar    1  UNL1        0.0825
      5 C         140.7070  139.0657  165.8986 C.ar    1  UNL1        0.0230
      6 C         139.4768  139.6857  166.4920 C.ar    1  UNL1        0.0741
      7 C         138.3582  140.1350  165.5992 C.ar    1  UNL1        0.0183
      8 C         138.4699  139.9644  164.1132 C.ar    1  UNL1        0.0463
      9 C         139.7002  139.3444  163.5198 C.ar    1  UNL1        0.0320
     10 C         139.8119  139.1737  162.0338 C.ar    1  UNL1        0.0188
     11 C         141.4887  137.8711  155.4961 C.3     1  UNL1        0.0897
     12 N         141.3771  138.0417  156.9821 N.3     1  UNL1       -0.2686
     13 C         142.5917  137.8857  157.8483 C.3     1  UNL1        0.0938
     14 C         142.4801  138.0563  159.3344 C.3     1  UNL1        0.1082
     15 N         141.1538  138.3830  159.9543 N.pl3   1  UNL1       -0.3034
     16 C         139.9392  138.5391  159.0881 C.3     1  UNL1        0.1082
     17 C         140.0508  138.3684  157.6021 C.3     1  UNL1        0.0938
     18 C         139.3651  139.8564  167.9780 C.3     1  UNL1        0.4187
     19 F         139.2533  140.0271  169.4641 F       1  UNL1       -0.1659
     20 F         138.0318  139.1694  167.9567 F       1  UNL1       -0.1659
     21 F         140.6983  140.5434  167.9993 F       1  UNL1       -0.1659
     22 N         137.3514  140.4137  163.2205 N.pl3   1  UNL1       -0.3290
     23 H         136.7392  139.7508  162.8268 H       1  UNL1        0.1471
     24 C         137.1655  141.8731  162.9277 C.3     1  UNL1        0.1143
     25 C         138.2067  142.8631  163.3589 C.ar    1  UNL1       -0.0020
     26 C         137.9727  143.7186  164.5685 C.ar    1  UNL1       -0.0026
     27 C         139.0138  144.7086  164.9997 C.ar    1  UNL1        0.0004
     28 C         140.2890  144.8430  164.2213 C.ar    1  UNL1        0.0103
     29 C         140.5230  143.9875  163.0116 C.ar    1  UNL1        0.0682
     30 C         139.4818  142.9974  162.5804 C.ar    1  UNL1        0.0077
     31 C         141.7981  144.1218  162.2332 C.1     1  UNL1        0.1004
     32 N         143.0732  144.2562  161.4548 N.1     1  UNL1       -0.1908
@<TRIPOS>BOND
     1    11    12    1
     2    12    13    1
     3    13    14    1
     4    14    15    1
     5    15     1    1
     6     1     2   ar
     7     2     3   ar
     8     3     4   ar
     9     4     5   ar
    10     5     6   ar
    11     6    18    1
    12    18    19    1
    13    18    20    1
    14    18    21    1
    15     6     7   ar
    16     7     8   ar
    17     8    22    1
    18    22    24    1
    19    24    25    1
    20    25    26   ar
    21    26    27   ar
    22    27    28   ar
    23    28    29   ar
    24    29    31    1
    25    31    32    3
    26    29    30   ar
    27     8     9   ar
    28     9    10   ar
    29    15    16    1
    30    16    17    1
    31    17    12    1
    32    10     1   ar
    33     9     4   ar
    34    30    25   ar
    35    22    23    1
@<TRIPOS>MOLECULE
*****
 32 35 0 0 0
SMALL
GASTEIGER

@<TRIPOS>ATOM
      1 C         139.8984  142.5739  163.4671 C.ar    1  UNL1        0.0674
      2 C         140.5998  143.5565  164.3573 C.ar    1  UNL1        0.1133
      3 N         140.7321  143.2772  165.8250 N.ar    1  UNL1       -0.2425
      4 C         140.1631  142.0152  166.4026 C.ar    1  UNL1        0.0825
      5 C         140.2955  141.7358  167.8705 C.ar    1  UNL1        0.0230
      6 C         139.7265  140.4738  168.4480 C.ar    1  UNL1        0.0741
      7 C         139.0251  139.4912  167.5577 C.ar    1  UNL1        0.0183
      8 C         138.8927  139.7706  166.0900 C.ar    1  UNL1        0.0463
      9 C         139.4617  141.0326  165.5124 C.ar    1  UNL1        0.0320
     10 C         139.3294  141.3119  164.0446 C.ar    1  UNL1        0.0188
     11 C         139.3689  143.6914  157.5958 C.3     1  UNL1        0.0897
     12 N         139.5013  143.4120  159.0636 N.3     1  UNL1       -0.2686
     13 C         138.5849  142.4257  159.7250 C.3     1  UNL1        0.0938
     14 C         138.7173  142.1463  161.1928 C.3     1  UNL1        0.1082
     15 N         139.7660  142.8533  161.9992 N.pl3   1  UNL1       -0.3034
     16 C         140.6824  143.8397  161.3379 C.3     1  UNL1        0.1082
     17 C         140.5500  144.1190  159.8701 C.3     1  UNL1        0.0938
     18 C         139.8588  140.1944  169.9158 C.3     1  UNL1        0.4187
     19 F         139.9911  139.9150  171.3836 F       1  UNL1       -0.1659
     20 F         138.5753  140.9274  170.1710 F       1  UNL1       -0.1659
     21 F         141.1423  139.4614  169.6605 F       1  UNL1       -0.1659
     22 N         138.1913  138.7880  165.1998 N.pl3   1  UNL1       -0.3290
     23 H         137.2388  138.9119  164.9840 H       1  UNL1        0.1471
     24 C         138.9412  137.6164  164.6383 C.3     1  UNL1        0.1143
     25 C         139.8549  137.8040  163.4636 C.ar    1  UNL1       -0.0020
     26 C         141.3348  137.6229  163.6281 C.ar    1  UNL1       -0.0026
     27 C         142.2485  137.8104  162.4534 C.ar    1  UNL1        0.0004
     28 C         141.6824  138.1790  161.1141 C.ar    1  UNL1        0.0103
     29 C         140.2024  138.3601  160.9496 C.ar    1  UNL1        0.0682
     30 C         139.2887  138.1725  162.1244 C.ar    1  UNL1        0.0077
     31 C         139.6362  138.7287  159.6104 C.1     1  UNL1        0.1004
     32 N         139.0700  139.0973  158.2712 N.1     1  UNL1       -0.1908
@<TRIPOS>BOND
     1    11    12    1
     2    12    13    1
     3    13    14    1
     4    14    15    1
     5    15     1    1
     6     1     2   ar
     7     2     3   ar
     8     3     4   ar
     9     4     5   ar
    10     5     6   ar
    11     6    18    1
    12    18    19    1
    13    18    20    1
    14    18    21    1
    15     6     7   ar
    16     7     8   ar
    17     8    22    1
    18    22    24    1
    19    24    25    1
    20    25    26   ar
    21    26    27   ar
    22    27    28   ar
    23    28    29   ar
    24    29    31    1
    25    31    32    3
    26    29    30   ar
    27     8     9   ar
    28     9    10   ar
    29    15    16    1
    30    16    17    1
    31    17    12    1
    32    10     1   ar
    33     9     4   ar
    34    30    25   ar
    35    22    23    1
@<TRIPOS>MOLECULE
*****
 32 35 0 0 0
SMALL
GASTEIGER

@<TRIPOS>ATOM
      1 C         142.7864  141.9633  165.0323 C.ar    1  UNL1        0.0674
      2 C         143.7296  141.4318  163.9941 C.ar    1  UNL1        0.1133
      3 N         143.6718  141.9558  162.5898 N.ar    1  UNL1       -0.2425
      4 C         142.6708  143.0112  162.2237 C.ar    1  UNL1        0.0825
      5 C         142.6131  143.5351  160.8193 C.ar    1  UNL1        0.0230
      6 C         141.6121  144.5906  160.4532 C.ar    1  UNL1        0.0741
      7 C         140.6688  145.1221  161.4914 C.ar    1  UNL1        0.0183
      8 C         140.7266  144.5981  162.8957 C.ar    1  UNL1        0.0463
      9 C         141.7276  143.5427  163.2619 C.ar    1  UNL1        0.0320
     10 C         141.7854  143.0188  164.6662 C.ar    1  UNL1        0.0188
     11 C         143.0175  139.8677  170.6497 C.3     1  UNL1        0.0897
     12 N         142.9597  140.3916  169.2454 N.3     1  UNL1       -0.2686
     13 C         142.7127  139.4508  168.1035 C.3     1  UNL1        0.0938
     14 C         142.6549  139.9747  166.6991 C.3     1  UNL1        0.1082
     15 N         142.8442  141.4394  166.4367 N.pl3   1  UNL1       -0.3034
     16 C         143.0912  142.3802  167.5786 C.3     1  UNL1        0.1082
     17 C         143.1490  141.8563  168.9829 C.3     1  UNL1        0.0938
     18 C         141.5543  145.1145  159.0489 C.3     1  UNL1        0.4187
     19 F         141.4965  145.6384  157.6445 F       1  UNL1       -0.1659
     20 F         142.7759  144.3167  158.7009 F       1  UNL1       -0.1659
     21 F         140.3327  145.9123  159.3968 F       1  UNL1       -0.1659
     22 N         139.7834  145.1296  163.9339 N.pl3   1  UNL1       -0.3290
     23 H         140.0619  145.8711  164.5186 H       1  UNL1        0.1471
     24 C         138.4158  144.5314  164.0812 C.3     1  UNL1        0.1143
     25 C         138.1875  143.0887  163.7398 C.ar    1  UNL1       -0.0020
     26 C         137.8818  142.6918  162.3259 C.ar    1  UNL1       -0.0026
     27 C         137.6535  141.2492  161.9845 C.ar    1  UNL1        0.0004
     28 C         137.7308  140.2033  163.0570 C.ar    1  UNL1        0.0103
     29 C         138.0365  140.6001  164.4709 C.ar    1  UNL1        0.0682
     30 C         138.2648  142.0428  164.8123 C.ar    1  UNL1        0.0077
     31 C         138.1139  139.5543  165.5434 C.1     1  UNL1        0.1004
     32 N         138.1912  138.5085  166.6158 N.1     1  UNL1       -0.1908
@<TRIPOS>BOND
     1    11    12    1
     2    12    13    1
     3    13    14    1
     4    14    15    1
     5    15     1    1
     6     1     2   ar
     7     2     3   ar
     8     3     4   ar
     9     4     5   ar
    10     5     6   ar
    11     6    18    1
    12    18    19    1
    13    18    20    1
    14    18    21    1
    15     6     7   ar
    16     7     8   ar
    17     8    22    1
    18    22    24    1
    19    24    25    1
    20    25    26   ar
    21    26    27   ar
    22    27    28   ar
    23    28    29   ar
    24    29    31    1
    25    31    32    3
    26    29    30   ar
    27     8     9   ar
    28     9    10   ar
    29    15    16    1
    30    16    17    1
    31    17    12    1
    32    10     1   ar
    33     9     4   ar
    34    30    25   ar
    35    22    23    1
@<TRIPOS>MOLECULE
*****
 32 35 0 0 0
SMALL
GASTEIGER

@<TRIPOS>ATOM
      1 C         140.4132  143.3657  163.5946 C.ar    1  UNL1        0.0674
      2 C         139.5260  144.0881  164.5646 C.ar    1  UNL1        0.1133
      3 N         139.6431  143.8149  166.0349 N.ar    1  UNL1       -0.2425
      4 C         140.6473  142.8193  166.5351 C.ar    1  UNL1        0.0825
      5 C         140.7644  142.5462  168.0054 C.ar    1  UNL1        0.0230
      6 C         141.7687  141.5506  168.5056 C.ar    1  UNL1        0.0741
      7 C         142.6559  140.8282  167.5355 C.ar    1  UNL1        0.0183
      8 C         142.5388  141.1013  166.0653 C.ar    1  UNL1        0.0463
      9 C         141.5345  142.0969  165.5651 C.ar    1  UNL1        0.0320
     10 C         141.4174  142.3701  164.0948 C.ar    1  UNL1        0.0188
     11 C         139.9450  144.4584  157.7135 C.3     1  UNL1        0.0897
     12 N         140.0620  144.1852  159.1838 N.3     1  UNL1       -0.2686
     13 C         139.2891  143.0575  159.8009 C.3     1  UNL1        0.0938
     14 C         139.4061  142.7843  161.2713 C.3     1  UNL1        0.1082
     15 N         140.2961  143.6388  162.1243 N.pl3   1  UNL1       -0.3034
     16 C         141.0691  144.7665  161.5071 C.3     1  UNL1        0.1082
     17 C         140.9520  145.0397  160.0369 C.3     1  UNL1        0.0938
     18 C         141.8858  141.2774  169.9758 C.3     1  UNL1        0.4187
     19 F         142.0028  141.0042  171.4462 F       1  UNL1       -0.1659
     20 F         140.4079  141.4813  170.1314 F       1  UNL1       -0.1659
     21 F         143.3636  141.0735  169.8203 F       1  UNL1       -0.1659
     22 N         143.4260  140.3789  165.0953 N.pl3   1  UNL1       -0.3290
     23 H         144.1924  140.8442  164.6885 H       1  UNL1        0.1471
     24 C         143.1456  138.9476  164.7450 C.3     1  UNL1        0.1143
     25 C         141.7524  138.5222  164.3871 C.ar    1  UNL1       -0.0020
     26 C         141.4207  138.1553  162.9710 C.ar    1  UNL1       -0.0026
     27 C         140.0276  137.7298  162.6131 C.ar    1  UNL1        0.0004
     28 C         138.9660  137.6713  163.6713 C.ar    1  UNL1        0.0103
     29 C         139.2977  138.0382  165.0874 C.ar    1  UNL1        0.0682
     30 C         140.6909  138.4636  165.4453 C.ar    1  UNL1        0.0077
     31 C         138.2362  137.9796  166.1456 C.1     1  UNL1        0.1004
     32 N         137.1748  137.9211  167.2038 N.1     1  UNL1       -0.1908
@<TRIPOS>BOND
     1    11    12    1
     2    12    13    1
     3    13    14    1
     4    14    15    1
     5    15     1    1
     6     1     2   ar
     7     2     3   ar
     8     3     4   ar
     9     4     5   ar
    10     5     6   ar
    11     6    18    1
    12    18    19    1
    13    18    20    1
    14    18    21    1
    15     6     7   ar
    16     7     8   ar
    17     8    22    1
    18    22    24    1
    19    24    25    1
    20    25    26   ar
    21    26    27   ar
    22    27    28   ar
    23    28    29   ar
    24    29    31    1
    25    31    32    3
    26    29    30   ar
    27     8     9   ar
    28     9    10   ar
    29    15    16    1
    30    16    17    1
    31    17    12    1
    32    10     1   ar
    33     9     4   ar
    34    30    25   ar
    35    22    23    1
@<TRIPOS>MOLECULE
*****
 32 35 0 0 0
SMALL
GASTEIGER

@<TRIPOS>ATOM
      1 C         142.6530  143.3280  162.8065 C.ar    1  UNL1        0.0674
      2 C         144.0030  143.0038  163.3741 C.ar    1  UNL1        0.1133
      3 N         144.1359  142.6115  164.8157 N.ar    1  UNL1       -0.2425
      4 C         142.9188  142.5434  165.6898 C.ar    1  UNL1        0.0825
      5 C         143.0517  142.1511  167.1315 C.ar    1  UNL1        0.0230
      6 C         141.8346  142.0830  168.0055 C.ar    1  UNL1        0.0741
      7 C         140.4845  142.4072  167.4378 C.ar    1  UNL1        0.0183
      8 C         140.3516  142.7995  165.9961 C.ar    1  UNL1        0.0463
      9 C         141.5688  142.8676  165.1221 C.ar    1  UNL1        0.0320
     10 C         141.4359  143.2599  163.6805 C.ar    1  UNL1        0.0188
     11 C         142.1213  144.8971  157.0397 C.3     1  UNL1        0.0897
     12 N         142.2542  144.5049  158.4813 N.3     1  UNL1       -0.2686
     13 C         141.3874  145.1551  159.5185 C.3     1  UNL1        0.0938
     14 C         141.5203  144.7628  160.9603 C.3     1  UNL1        0.1082
     15 N         142.5201  143.7203  161.3647 N.pl3   1  UNL1       -0.3034
     16 C         143.3869  143.0700  160.3275 C.3     1  UNL1        0.1082
     17 C         143.2540  143.4623  158.8859 C.3     1  UNL1        0.0938
     18 C         141.9675  141.6907  169.4471 C.3     1  UNL1        0.4187
     19 F         142.1003  141.2984  170.8889 F       1  UNL1       -0.1659
     20 F         140.7030  142.4321  169.7655 F       1  UNL1       -0.1659
     21 F         143.2319  140.9492  169.1288 F       1  UNL1       -0.1659
     22 N         139.0016  143.1236  165.4285 N.pl3   1  UNL1       -0.3290
     23 H         138.5977  144.0064  165.5924 H       1  UNL1        0.1471
     24 C         138.2668  142.1028  164.6112 C.3     1  UNL1        0.1143
     25 C         138.6512  140.6554  164.6970 C.ar    1  UNL1       -0.0020
     26 C         138.1395  139.8092  165.8249 C.ar    1  UNL1       -0.0026
     27 C         138.5238  138.3618  165.9107 C.ar    1  UNL1        0.0004
     28 C         139.4198  137.7606  164.8687 C.ar    1  UNL1        0.0103
     29 C         139.9314  138.6068  163.7408 C.ar    1  UNL1        0.0682
     30 C         139.5471  140.0542  163.6549 C.ar    1  UNL1        0.0077
     31 C         140.8274  138.0057  162.6987 C.1     1  UNL1        0.1004
     32 N         141.7233  137.4045  161.6567 N.1     1  UNL1       -0.1908
@<TRIPOS>BOND
     1    11    12    1
     2    12    13    1
     3    13    14    1
     4    14    15    1
     5    15     1    1
     6     1     2   ar
     7     2     3   ar
     8     3     4   ar
     9     4     5   ar
    10     5     6   ar
    11     6    18    1
    12    18    19    1
    13    18    20    1
    14    18    21    1
    15     6     7   ar
    16     7     8   ar
    17     8    22    1
    18    22    24    1
    19    24    25    1
    20    25    26   ar
    21    26    27   ar
    22    27    28   ar
    23    28    29   ar
    24    29    31    1
    25    31    32    3
    26    29    30   ar
    27     8     9   ar
    28     9    10   ar
    29    15    16    1
    30    16    17    1
    31    17    12    1
    32    10     1   ar
    33     9     4   ar
    34    30    25   ar
    35    22    23    1
@<TRIPOS>MOLECULE
*****
 32 35 0 0 0
SMALL
GASTEIGER

@<TRIPOS>ATOM
      1 C         143.2770  140.4083  162.8370 C.ar    1  UNL1        0.0674
      2 C         144.2391  141.5397  163.0468 C.ar    1  UNL1        0.1133
      3 N         144.3140  142.2231  164.3800 N.ar    1  UNL1       -0.2425
      4 C         143.4268  141.7750  165.5033 C.ar    1  UNL1        0.0825
      5 C         143.5018  142.4584  166.8366 C.ar    1  UNL1        0.0230
      6 C         142.6145  142.0103  167.9600 C.ar    1  UNL1        0.0741
      7 C         141.6523  140.8788  167.7501 C.ar    1  UNL1        0.0183
      8 C         141.5774  140.1954  166.4169 C.ar    1  UNL1        0.0463
      9 C         142.4646  140.6435  165.2936 C.ar    1  UNL1        0.0320
     10 C         142.3897  139.9602  163.9604 C.ar    1  UNL1        0.0188
     11 C         142.9771  137.6747  157.5042 C.3     1  UNL1        0.0897
     12 N         143.0521  138.3581  158.8374 N.3     1  UNL1       -0.2686
     13 C         143.3399  139.8284  158.9114 C.3     1  UNL1        0.0938
     14 C         143.4148  140.5118  160.2446 C.3     1  UNL1        0.1082
     15 N         143.2020  139.7249  161.5038 N.pl3   1  UNL1       -0.3034
     16 C         142.9142  138.2547  161.4298 C.3     1  UNL1        0.1082
     17 C         142.8392  137.5713  160.0966 C.3     1  UNL1        0.0938
     18 C         142.6894  142.6936  169.2931 C.3     1  UNL1        0.4187
     19 F         142.7643  143.3769  170.6264 F       1  UNL1       -0.1659
     20 F         141.2035  142.8968  169.2725 F       1  UNL1       -0.1659
     21 F         144.1754  142.4903  169.3138 F       1  UNL1       -0.1659
     22 N         140.6152  139.0640  166.2072 N.pl3   1  UNL1       -0.3290
     23 H         140.9367  138.1338  166.2299 H       1  UNL1        0.1471
     24 C         139.1631  139.3499  165.9627 C.3     1  UNL1        0.1143
     25 C         138.7127  139.8513  164.6226 C.ar    1  UNL1       -0.0020
     26 C         138.4085  138.8790  163.5216 C.ar    1  UNL1       -0.0026
     27 C         137.9581  139.3803  162.1816 C.ar    1  UNL1        0.0004
     28 C         137.8118  140.8540  161.9424 C.ar    1  UNL1        0.0103
     29 C         138.1161  141.8262  163.0434 C.ar    1  UNL1        0.0682
     30 C         138.5665  141.3248  164.3835 C.ar    1  UNL1        0.0077
     31 C         137.9699  143.2998  162.8044 C.1     1  UNL1        0.1004
     32 N         137.8237  144.7733  162.5653 N.1     1  UNL1       -0.1908
@<TRIPOS>BOND
     1    11    12    1
     2    12    13    1
     3    13    14    1
     4    14    15    1
     5    15     1    1
     6     1     2   ar
     7     2     3   ar
     8     3     4   ar
     9     4     5   ar
    10     5     6   ar
    11     6    18    1
    12    18    19    1
    13    18    20    1
    14    18    21    1
    15     6     7   ar
    16     7     8   ar
    17     8    22    1
    18    22    24    1
    19    24    25    1
    20    25    26   ar
    21    26    27   ar
    22    27    28   ar
    23    28    29   ar
    24    29    31    1
    25    31    32    3
    26    29    30   ar
    27     8     9   ar
    28     9    10   ar
    29    15    16    1
    30    16    17    1
    31    17    12    1
    32    10     1   ar
    33     9     4   ar
    34    30    25   ar
    35    22    23    1
@<TRIPOS>MOLECULE
*****
 32 35 0 0 0
SMALL
GASTEIGER

@<TRIPOS>ATOM
      1 C         140.3288  138.5996  162.3526 C.ar    1  UNL1        0.0674
      2 C         139.1124  137.8572  162.8206 C.ar    1  UNL1        0.1133
      3 N         138.6290  138.0229  164.2309 N.ar    1  UNL1       -0.2425
      4 C         139.3622  138.9311  165.1731 C.ar    1  UNL1        0.0825
      5 C         138.8788  139.0968  166.5835 C.ar    1  UNL1        0.0230
      6 C         139.6119  140.0049  167.5257 C.ar    1  UNL1        0.0741
      7 C         140.8284  140.7474  167.0576 C.ar    1  UNL1        0.0183
      8 C         141.3117  140.5816  165.6473 C.ar    1  UNL1        0.0463
      9 C         140.5786  139.6735  164.7051 C.ar    1  UNL1        0.0320
     10 C         141.0619  139.5077  163.2948 C.ar    1  UNL1        0.0188
     11 C         142.2623  137.9366  156.7115 C.3     1  UNL1        0.0897
     12 N         141.7789  138.1024  158.1217 N.3     1  UNL1       -0.2686
     13 C         140.3641  138.5255  158.3847 C.3     1  UNL1        0.0938
     14 C         139.8807  138.6912  159.7951 C.3     1  UNL1        0.1082
     15 N         140.8122  138.4338  160.9423 N.pl3   1  UNL1       -0.3034
     16 C         142.2270  138.0107  160.6792 C.3     1  UNL1        0.1082
     17 C         142.7104  137.8450  159.2690 C.3     1  UNL1        0.0938
     18 C         139.1286  140.1707  168.9360 C.3     1  UNL1        0.4187
     19 F         138.6452  140.3364  170.3463 F       1  UNL1       -0.1659
     20 F         137.9513  139.2911  168.6359 F       1  UNL1       -0.1659
     21 F         140.3059  141.0503  169.2361 F       1  UNL1       -0.1659
     22 N         142.5282  141.3240  165.1793 N.pl3   1  UNL1       -0.3290
     23 H         143.3161  140.8269  164.8610 H       1  UNL1        0.1471
     24 C         142.5442  142.8238  165.1963 C.3     1  UNL1        0.1143
     25 C         141.5627  143.5938  164.3632 C.ar    1  UNL1       -0.0020
     26 C         140.2474  144.0131  164.9500 C.ar    1  UNL1       -0.0026
     27 C         139.2660  144.7830  164.1170 C.ar    1  UNL1        0.0004
     28 C         139.5998  145.1337  162.6972 C.ar    1  UNL1        0.0103
     29 C         140.9151  144.7145  162.1105 C.ar    1  UNL1        0.0682
     30 C         141.8965  143.9445  162.9436 C.ar    1  UNL1        0.0077
     31 C         141.2489  145.0652  160.6908 C.1     1  UNL1        0.1004
     32 N         141.5827  145.4159  159.2712 N.1     1  UNL1       -0.1908
@<TRIPOS>BOND
     1    11    12    1
     2    12    13    1
     3    13    14    1
     4    14    15    1
     5    15     1    1
     6     1     2   ar
     7     2     3   ar
     8     3     4   ar
     9     4     5   ar
    10     5     6   ar
    11     6    18    1
    12    18    19    1
    13    18    20    1
    14    18    21    1
    15     6     7   ar
    16     7     8   ar
    17     8    22    1
    18    22    24    1
    19    24    25    1
    20    25    26   ar
    21    26    27   ar
    22    27    28   ar
    23    28    29   ar
    24    29    31    1
    25    31    32    3
    26    29    30   ar
    27     8     9   ar
    28     9    10   ar
    29    15    16    1
    30    16    17    1
    31    17    12    1
    32    10     1   ar
    33     9     4   ar
    34    30    25   ar
    35    22    23    1
