@<TRIPOS>MOLECULE
*****
 30 34 0 0 0
SMALL
GASTEIGER

@<TRIPOS>ATOM
      1 C         143.2680  142.3906  169.6996 C.ar    1  UNL1        0.1353
      2 C         142.7227  142.4468  168.3034 C.ar    1  UNL1        0.0346
      3 C         141.2743  142.1487  168.0513 C.ar    1  UNL1        0.0058
      4 C         140.3714  141.7943  169.1954 C.ar    1  UNL1        0.0208
      5 C         140.9168  141.7381  170.5917 C.ar    1  UNL1        0.1003
      6 N         142.3651  142.0362  170.8438 N.ar    1  UNL1       -0.2290
      7 C         140.7290  142.2049  166.6551 C.ar    1  UNL1        0.0192
      8 C         140.9910  143.2863  165.6491 C.ar    1  UNL1        0.0801
      9 N         140.2498  142.9393  164.3920 N.ar    1  UNL1       -0.3035
     10 C         139.5297  141.6436  164.6211 C.ar    1  UNL1        0.0832
     11 C         138.6426  140.8184  163.7368 C.ar    1  UNL1        0.1163
     12 N         138.0516  139.5393  164.2512 N.ar    1  UNL1       -0.2408
     13 C         138.3477  139.0854  165.6498 C.ar    1  UNL1        0.0990
     14 C         139.2348  139.9106  166.5341 C.ar    1  UNL1        0.0222
     15 C         139.8258  141.1897  166.0197 C.ar    1  UNL1        0.0206
     16 C         140.2319  143.7464  163.1278 C.ar    1  UNL1        0.0641
     17 C         140.6964  143.1333  161.8399 C.ar    1  UNL1        0.0175
     18 C         140.6785  143.9404  160.5756 C.ar    1  UNL1        0.0015
     19 C         140.1961  145.3605  160.5992 C.ar    1  UNL1        0.0001
     20 C         139.7316  145.9735  161.8870 C.ar    1  UNL1        0.0015
     21 C         139.7496  145.1665  163.1512 C.ar    1  UNL1        0.0175
     22 O         144.0425  144.7409  171.3953 O.2     1  UNL1       -0.2525
     23 C         145.1036  143.8639  170.7995 C.2     1  UNL1        0.3055
     24 N         144.7163  142.6887  169.9516 N.am    1  UNL1       -0.2537
     25 N         146.5519  144.1621  171.0515 N.am    1  UNL1       -0.2903
     26 H         145.4127  142.1130  169.5605 H       1  UNL1        0.1578
     27 H         147.2483  143.5865  170.6604 H       1  UNL1        0.1509
     28 C         146.9392  145.3373  171.8994 C.3     1  UNL1        0.0732
     29 C         146.7207  146.7581  172.3280 C.3     1  UNL1        0.0213
     30 C         147.8284  145.9521  172.9393 C.3     1  UNL1        0.0213
@<TRIPOS>BOND
     1    22    23    2
     2    23    24   am
     3    24     1    1
     4     1     2   ar
     5     2     3   ar
     6     3     7    1
     7     7     8   ar
     8     8     9   ar
     9     9    16    1
    10    16    17   ar
    11    17    18   ar
    12    18    19   ar
    13    19    20   ar
    14    20    21   ar
    15     9    10   ar
    16    10    11   ar
    17    11    12   ar
    18    12    13   ar
    19    13    14   ar
    20    14    15   ar
    21     3     4   ar
    22     4     5   ar
    23     5     6   ar
    24    23    25   am
    25    25    28    1
    26    28    29    1
    27    29    30    1
    28     6     1   ar
    29    30    28    1
    30    15     7   ar
    31    21    16   ar
    32    15    10   ar
    33    24    26    1
    34    25    27    1
@<TRIPOS>MOLECULE
*****
 30 34 0 0 0
SMALL
GASTEIGER

@<TRIPOS>ATOM
      1 C         142.6681  140.5602  170.5411 C.ar    1  UNL1        0.1353
      2 C         142.5165  140.4962  169.0502 C.ar    1  UNL1        0.0346
      3 C         141.3121  141.1017  168.3921 C.ar    1  UNL1        0.0058
      4 C         140.2595  141.7711  169.2250 C.ar    1  UNL1        0.0208
      5 C         140.4111  141.8351  170.7159 C.ar    1  UNL1        0.1003
      6 N         141.6154  141.2297  171.3740 N.ar    1  UNL1       -0.2290
      7 C         141.1605  141.0377  166.9011 C.ar    1  UNL1        0.0192
      8 C         140.0562  140.3483  166.1560 C.ar    1  UNL1        0.0801
      9 N         140.2998  140.5364  164.6879 N.ar    1  UNL1       -0.3035
     10 C         141.5547  141.3421  164.5257 C.ar    1  UNL1        0.0832
     11 C         142.2817  141.8336  163.3092 C.ar    1  UNL1        0.1163
     12 N         143.5406  142.6349  163.4606 N.ar    1  UNL1       -0.2408
     13 C         144.0725  142.9447  164.8285 C.ar    1  UNL1        0.0990
     14 C         143.3455  142.4532  166.0450 C.ar    1  UNL1        0.0222
     15 C         142.0866  141.6519  165.8936 C.ar    1  UNL1        0.0206
     16 C         139.4396  140.0111  163.5770 C.ar    1  UNL1        0.0641
     17 C         139.4122  138.5408  163.2808 C.ar    1  UNL1        0.0175
     18 C         138.5520  138.0155  162.1699 C.ar    1  UNL1        0.0015
     19 C         137.7192  138.9604  161.3552 C.ar    1  UNL1        0.0001
     20 C         137.7467  140.4306  161.6514 C.ar    1  UNL1        0.0015
     21 C         138.6069  140.9559  162.7623 C.ar    1  UNL1        0.0175
     22 O         142.9933  137.5790  170.6215 O.2     1  UNL1       -0.2525
     23 C         144.0350  138.4641  171.2393 C.2     1  UNL1        0.3055
     24 N         143.8724  139.9547  171.1991 N.am    1  UNL1       -0.2537
     25 N         145.2393  137.8584  171.8973 N.am    1  UNL1       -0.2903
     26 H         144.5560  140.5356  171.6046 H       1  UNL1        0.1578
     27 H         145.9230  138.4393  172.3028 H       1  UNL1        0.1509
     28 C         145.4020  136.3678  171.9375 C.3     1  UNL1        0.0732
     29 C         144.9952  135.0035  171.4651 C.3     1  UNL1        0.0213
     30 C         146.0904  135.1503  172.4795 C.3     1  UNL1        0.0213
@<TRIPOS>BOND
     1    22    23    2
     2    23    24   am
     3    24     1    1
     4     1     2   ar
     5     2     3   ar
     6     3     7    1
     7     7     8   ar
     8     8     9   ar
     9     9    16    1
    10    16    17   ar
    11    17    18   ar
    12    18    19   ar
    13    19    20   ar
    14    20    21   ar
    15     9    10   ar
    16    10    11   ar
    17    11    12   ar
    18    12    13   ar
    19    13    14   ar
    20    14    15   ar
    21     3     4   ar
    22     4     5   ar
    23     5     6   ar
    24    23    25   am
    25    25    28    1
    26    28    29    1
    27    29    30    1
    28     6     1   ar
    29    30    28    1
    30    15     7   ar
    31    21    16   ar
    32    15    10   ar
    33    24    26    1
    34    25    27    1
@<TRIPOS>MOLECULE
*****
 30 34 0 0 0
SMALL
GASTEIGER

@<TRIPOS>ATOM
      1 C         142.2127  140.0201  170.0848 C.ar    1  UNL1        0.1353
      2 C         142.3588  140.1314  168.5961 C.ar    1  UNL1        0.0346
      3 C         141.1507  140.3700  167.7396 C.ar    1  UNL1        0.0058
      4 C         139.7965  140.4973  168.3719 C.ar    1  UNL1        0.0208
      5 C         139.6503  140.3860  169.8606 C.ar    1  UNL1        0.1003
      6 N         140.8584  140.1474  170.7171 N.ar    1  UNL1       -0.2290
      7 C         141.2969  140.4813  166.2509 C.ar    1  UNL1        0.0192
      8 C         141.7773  139.4001  165.3289 C.ar    1  UNL1        0.0801
      9 N         141.7656  139.9440  163.9310 N.ar    1  UNL1       -0.3035
     10 C         141.2780  141.3613  163.9891 C.ar    1  UNL1        0.0832
     11 C         141.0603  142.3924  162.9217 C.ar    1  UNL1        0.1163
     12 N         140.5530  143.7556  163.2880 N.ar    1  UNL1       -0.2408
     13 C         140.2633  144.0877  164.7218 C.ar    1  UNL1        0.0990
     14 C         140.4809  143.0566  165.7893 C.ar    1  UNL1        0.0222
     15 C         140.9883  141.6934  165.4229 C.ar    1  UNL1        0.0206
     16 C         142.1705  139.2009  162.6925 C.ar    1  UNL1        0.0641
     17 C         141.2016  139.0515  161.5570 C.ar    1  UNL1        0.0175
     18 C         141.6065  138.3085  160.3185 C.ar    1  UNL1        0.0015
     19 C         142.9801  137.7149  160.2153 C.ar    1  UNL1        0.0001
     20 C         143.9489  137.8643  161.3506 C.ar    1  UNL1        0.0015
     21 C         143.5441  138.6074  162.5892 C.ar    1  UNL1        0.0175
     22 O         143.2811  137.2382  170.4294 O.2     1  UNL1       -0.2525
     23 C         143.9550  138.3905  171.1135 C.2     1  UNL1        0.3055
     24 N         143.4208  139.7815  170.9412 N.am    1  UNL1       -0.2537
     25 N         145.1633  138.1519  171.9700 N.am    1  UNL1       -0.2903
     26 H         143.8631  140.5379  171.3902 H       1  UNL1        0.1578
     27 H         145.6056  138.9082  172.4190 H       1  UNL1        0.1509
     28 C         145.6975  136.7608  172.1423 C.3     1  UNL1        0.0732
     29 C         146.7847  135.8343  172.5999 C.3     1  UNL1        0.0213
     30 C         145.5356  135.2781  171.9831 C.3     1  UNL1        0.0213
@<TRIPOS>BOND
     1    22    23    2
     2    23    24   am
     3    24     1    1
     4     1     2   ar
     5     2     3   ar
     6     3     7    1
     7     7     8   ar
     8     8     9   ar
     9     9    16    1
    10    16    17   ar
    11    17    18   ar
    12    18    19   ar
    13    19    20   ar
    14    20    21   ar
    15     9    10   ar
    16    10    11   ar
    17    11    12   ar
    18    12    13   ar
    19    13    14   ar
    20    14    15   ar
    21     3     4   ar
    22     4     5   ar
    23     5     6   ar
    24    23    25   am
    25    25    28    1
    26    28    29    1
    27    29    30    1
    28     6     1   ar
    29    30    28    1
    30    15     7   ar
    31    21    16   ar
    32    15    10   ar
    33    24    26    1
    34    25    27    1
@<TRIPOS>MOLECULE
*****
 30 34 0 0 0
SMALL
GASTEIGER

@<TRIPOS>ATOM
      1 C         139.9358  140.4494  170.4178 C.ar    1  UNL1        0.1353
      2 C         140.0342  140.2627  168.9328 C.ar    1  UNL1        0.0346
      3 C         140.3023  141.4416  168.0447 C.ar    1  UNL1        0.0058
      4 C         140.4721  142.8070  168.6419 C.ar    1  UNL1        0.0208
      5 C         140.3737  142.9937  170.1270 C.ar    1  UNL1        0.1003
      6 N         140.1056  141.8149  171.0149 N.ar    1  UNL1       -0.2290
      7 C         140.4007  141.2549  166.5596 C.ar    1  UNL1        0.0192
      8 C         139.2886  140.8247  165.6495 C.ar    1  UNL1        0.0801
      9 N         139.8291  140.7695  164.2514 N.ar    1  UNL1       -0.3035
     10 C         141.2751  141.1656  164.2974 C.ar    1  UNL1        0.0832
     11 C         142.3158  141.2918  163.2245 C.ar    1  UNL1        0.1163
     12 N         143.7097  141.7180  163.5783 N.ar    1  UNL1       -0.2408
     13 C         144.0630  142.0180  165.0049 C.ar    1  UNL1        0.0990
     14 C         143.0223  141.8917  166.0778 C.ar    1  UNL1        0.0222
     15 C         141.6284  141.4655  165.7240 C.ar    1  UNL1        0.0206
     16 C         139.0587  140.3857  163.0229 C.ar    1  UNL1        0.0641
     17 C         138.4730  139.0098  162.9043 C.ar    1  UNL1        0.0175
     18 C         137.7026  138.6260  161.6758 C.ar    1  UNL1        0.0015
     19 C         137.5180  139.6179  160.5658 C.ar    1  UNL1        0.0001
     20 C         138.1038  140.9937  160.6844 C.ar    1  UNL1        0.0015
     21 C         138.8741  141.3776  161.9130 C.ar    1  UNL1        0.0175
     22 O         137.1127  139.5932  170.9624 O.2     1  UNL1       -0.2525
     23 C         138.2561  138.8425  171.5780 C.2     1  UNL1        0.3055
     24 N         139.6677  139.2706  171.3057 N.am    1  UNL1       -0.2537
     25 N         137.9878  137.6636  172.4659 N.am    1  UNL1       -0.2903
     26 H         140.4181  138.7778  171.7098 H       1  UNL1        0.1578
     27 H         138.7383  137.1708  172.8700 H       1  UNL1        0.1509
     28 C         136.5762  137.2355  172.7382 C.3     1  UNL1        0.0732
     29 C         135.1108  137.5508  172.7929 C.3     1  UNL1        0.0213
     30 C         135.5967  136.1787  173.1550 C.3     1  UNL1        0.0213
@<TRIPOS>BOND
     1    22    23    2
     2    23    24   am
     3    24     1    1
     4     1     2   ar
     5     2     3   ar
     6     3     7    1
     7     7     8   ar
     8     8     9   ar
     9     9    16    1
    10    16    17   ar
    11    17    18   ar
    12    18    19   ar
    13    19    20   ar
    14    20    21   ar
    15     9    10   ar
    16    10    11   ar
    17    11    12   ar
    18    12    13   ar
    19    13    14   ar
    20    14    15   ar
    21     3     4   ar
    22     4     5   ar
    23     5     6   ar
    24    23    25   am
    25    25    28    1
    26    28    29    1
    27    29    30    1
    28     6     1   ar
    29    30    28    1
    30    15     7   ar
    31    21    16   ar
    32    15    10   ar
    33    24    26    1
    34    25    27    1
@<TRIPOS>MOLECULE
*****
 30 34 0 0 0
SMALL
GASTEIGER

@<TRIPOS>ATOM
      1 C         142.1972  140.1226  170.0806 C.ar    1  UNL1        0.1353
      2 C         142.4571  140.5612  168.6699 C.ar    1  UNL1        0.0346
      3 C         141.3076  140.8483  167.7499 C.ar    1  UNL1        0.0058
      4 C         139.8983  140.6969  168.2407 C.ar    1  UNL1        0.0208
      5 C         139.6384  140.2584  169.6514 C.ar    1  UNL1        0.1003
      6 N         140.7878  139.9712  170.5714 N.ar    1  UNL1       -0.2290
      7 C         141.5675  141.2869  166.3392 C.ar    1  UNL1        0.0192
      8 C         140.8256  142.3598  165.5985 C.ar    1  UNL1        0.0801
      9 N         141.4145  142.4655  164.2231 N.ar    1  UNL1       -0.3035
     10 C         142.5204  141.4580  164.1136 C.ar    1  UNL1        0.0832
     11 C         143.4535  141.1097  162.9920 C.ar    1  UNL1        0.1163
     12 N         144.4811  140.0331  163.1783 N.ar    1  UNL1       -0.2408
     13 C         144.5756  139.3046  164.4861 C.ar    1  UNL1        0.0990
     14 C         143.6425  139.6529  165.6077 C.ar    1  UNL1        0.0222
     15 C         142.6149  140.7295  165.4214 C.ar    1  UNL1        0.0206
     16 C         140.9748  143.4125  163.1461 C.ar    1  UNL1        0.0641
     17 C         141.0007  144.8921  163.3919 C.ar    1  UNL1        0.0175
     18 C         140.5610  145.8391  162.3149 C.ar    1  UNL1        0.0015
     19 C         140.0954  145.3066  160.9922 C.ar    1  UNL1        0.0001
     20 C         140.0695  143.8271  160.7464 C.ar    1  UNL1        0.0015
     21 C         140.5092  142.8801  161.8234 C.ar    1  UNL1        0.0175
     22 O         143.3411  137.3535  170.2324 O.2     1  UNL1       -0.2525
     23 C         143.9186  138.4508  171.0764 C.2     1  UNL1        0.3055
     24 N         143.3466  139.8354  171.0005 N.am    1  UNL1       -0.2537
     25 N         145.0682  138.1636  171.9963 N.am    1  UNL1       -0.2903
     26 H         143.7257  140.5557  171.5544 H       1  UNL1        0.1578
     27 H         145.4472  138.8838  172.5502 H       1  UNL1        0.1509
     28 C         145.6402  136.7790  172.0722 C.3     1  UNL1        0.0732
     29 C         146.8230  135.8684  172.2189 C.3     1  UNL1        0.0213
     30 C         145.4479  135.2915  172.0568 C.3     1  UNL1        0.0213
@<TRIPOS>BOND
     1    22    23    2
     2    23    24   am
     3    24     1    1
     4     1     2   ar
     5     2     3   ar
     6     3     7    1
     7     7     8   ar
     8     8     9   ar
     9     9    16    1
    10    16    17   ar
    11    17    18   ar
    12    18    19   ar
    13    19    20   ar
    14    20    21   ar
    15     9    10   ar
    16    10    11   ar
    17    11    12   ar
    18    12    13   ar
    19    13    14   ar
    20    14    15   ar
    21     3     4   ar
    22     4     5   ar
    23     5     6   ar
    24    23    25   am
    25    25    28    1
    26    28    29    1
    27    29    30    1
    28     6     1   ar
    29    30    28    1
    30    15     7   ar
    31    21    16   ar
    32    15    10   ar
    33    24    26    1
    34    25    27    1
@<TRIPOS>MOLECULE
*****
 30 34 0 0 0
SMALL
GASTEIGER

@<TRIPOS>ATOM
      1 C         139.8927  140.6641  170.3135 C.ar    1  UNL1        0.1353
      2 C         140.1915  140.5732  168.8464 C.ar    1  UNL1        0.0346
      3 C         140.4501  141.8210  168.0549 C.ar    1  UNL1        0.0058
      4 C         140.4099  143.1594  168.7306 C.ar    1  UNL1        0.0208
      5 C         140.1112  143.2504  170.1978 C.ar    1  UNL1        0.1003
      6 N         139.8526  142.0027  170.9892 N.ar    1  UNL1       -0.2290
      7 C         140.7488  141.7300  166.5877 C.ar    1  UNL1        0.0192
      8 C         141.6048  140.6918  165.9250 C.ar    1  UNL1        0.0801
      9 N         141.6289  140.9816  164.4534 N.ar    1  UNL1       -0.3035
     10 C         140.7879  142.1988  164.2067 C.ar    1  UNL1        0.0832
     11 C         140.4470  142.9458  162.9514 C.ar    1  UNL1        0.1163
     12 N         139.5623  144.1553  163.0152 N.ar    1  UNL1       -0.2408
     13 C         139.0183  144.6179  164.3343 C.ar    1  UNL1        0.0990
     14 C         139.3591  143.8710  165.5896 C.ar    1  UNL1        0.0222
     15 C         140.2439  142.6614  165.5259 C.ar    1  UNL1        0.0206
     16 C         142.3650  140.1926  163.4114 C.ar    1  UNL1        0.0641
     17 C         143.5084  140.8162  162.6671 C.ar    1  UNL1        0.0175
     18 C         144.2444  140.0272  161.6251 C.ar    1  UNL1        0.0015
     19 C         143.8371  138.6146  161.3274 C.ar    1  UNL1        0.0001
     20 C         142.6938  137.9910  162.0716 C.ar    1  UNL1        0.0015
     21 C         141.9577  138.7800  163.1136 C.ar    1  UNL1        0.0175
     22 O         137.0809  139.8880  171.0139 O.2     1  UNL1       -0.2525
     23 C         138.2282  139.0283  171.4551 C.2     1  UNL1        0.3055
     24 N         139.6342  139.4164  171.1049 N.am    1  UNL1       -0.2537
     25 N         137.9695  137.7805  172.2465 N.am    1  UNL1       -0.2903
     26 H         140.3872  138.8522  171.3945 H       1  UNL1        0.1578
     27 H         138.7226  137.2163  172.5361 H       1  UNL1        0.1509
     28 C         136.5636  137.3925  172.5967 C.3     1  UNL1        0.0732
     29 C         135.5956  136.4090  173.1848 C.3     1  UNL1        0.0213
     30 C         135.0964  137.7038  172.6153 C.3     1  UNL1        0.0213
@<TRIPOS>BOND
     1    22    23    2
     2    23    24   am
     3    24     1    1
     4     1     2   ar
     5     2     3   ar
     6     3     7    1
     7     7     8   ar
     8     8     9   ar
     9     9    16    1
    10    16    17   ar
    11    17    18   ar
    12    18    19   ar
    13    19    20   ar
    14    20    21   ar
    15     9    10   ar
    16    10    11   ar
    17    11    12   ar
    18    12    13   ar
    19    13    14   ar
    20    14    15   ar
    21     3     4   ar
    22     4     5   ar
    23     5     6   ar
    24    23    25   am
    25    25    28    1
    26    28    29    1
    27    29    30    1
    28     6     1   ar
    29    30    28    1
    30    15     7   ar
    31    21    16   ar
    32    15    10   ar
    33    24    26    1
    34    25    27    1
@<TRIPOS>MOLECULE
*****
 30 34 0 0 0
SMALL
GASTEIGER

@<TRIPOS>ATOM
      1 C         140.4750  142.9477  170.2999 C.ar    1  UNL1        0.1353
      2 C         140.3448  142.5911  168.8487 C.ar    1  UNL1        0.0346
      3 C         141.5713  142.3055  168.0336 C.ar    1  UNL1        0.0058
      4 C         142.9277  142.3765  168.6697 C.ar    1  UNL1        0.0208
      5 C         143.0579  142.7331  170.1209 C.ar    1  UNL1        0.1003
      6 N         141.8316  143.0187  170.9360 N.ar    1  UNL1       -0.2290
      7 C         141.4410  141.9489  166.5824 C.ar    1  UNL1        0.0192
      8 C         142.1378  140.8173  165.8866 C.ar    1  UNL1        0.0801
      9 N         141.7185  140.8304  164.4465 N.ar    1  UNL1       -0.3035
     10 C         140.7628  141.9700  164.2522 C.ar    1  UNL1        0.0832
     11 C         140.0265  142.4675  163.0438 C.ar    1  UNL1        0.1163
     12 N         139.1187  143.6564  163.1555 N.ar    1  UNL1       -0.2408
     13 C         138.9472  144.3477  164.4756 C.ar    1  UNL1        0.0990
     14 C         139.6835  143.8501  165.6840 C.ar    1  UNL1        0.0222
     15 C         140.5913  142.6613  165.5723 C.ar    1  UNL1        0.0206
     16 C         142.1750  139.8720  163.3866 C.ar    1  UNL1        0.0641
     17 C         141.3233  138.6909  163.0263 C.ar    1  UNL1        0.0175
     18 C         141.7797  137.7326  161.9665 C.ar    1  UNL1        0.0015
     19 C         143.0877  137.9553  161.2669 C.ar    1  UNL1        0.0001
     20 C         143.9393  139.1364  161.6271 C.ar    1  UNL1        0.0015
     21 C         143.4829  140.0947  162.6870 C.ar    1  UNL1        0.0175
     22 O         139.6806  145.7836  170.8711 O.2     1  UNL1       -0.2525
     23 C         138.8514  144.6513  171.4005 C.2     1  UNL1        0.3055
     24 N         139.2486  143.2333  171.1149 N.am    1  UNL1       -0.2537
     25 N         137.6248  144.9370  172.2155 N.am    1  UNL1       -0.2903
     26 H         138.7043  142.4901  171.4623 H       1  UNL1        0.1578
     27 H         137.0806  144.1938  172.5630 H       1  UNL1        0.1509
     28 C         137.2276  146.3550  172.5011 C.3     1  UNL1        0.0732
     29 C         136.2032  147.3496  172.9607 C.3     1  UNL1        0.0213
     30 C         137.5641  147.8163  172.5362 C.3     1  UNL1        0.0213
@<TRIPOS>BOND
     1    22    23    2
     2    23    24   am
     3    24     1    1
     4     1     2   ar
     5     2     3   ar
     6     3     7    1
     7     7     8   ar
     8     8     9   ar
     9     9    16    1
    10    16    17   ar
    11    17    18   ar
    12    18    19   ar
    13    19    20   ar
    14    20    21   ar
    15     9    10   ar
    16    10    11   ar
    17    11    12   ar
    18    12    13   ar
    19    13    14   ar
    20    14    15   ar
    21     3     4   ar
    22     4     5   ar
    23     5     6   ar
    24    23    25   am
    25    25    28    1
    26    28    29    1
    27    29    30    1
    28     6     1   ar
    29    30    28    1
    30    15     7   ar
    31    21    16   ar
    32    15    10   ar
    33    24    26    1
    34    25    27    1
@<TRIPOS>MOLECULE
*****
 30 34 0 0 0
SMALL
GASTEIGER

@<TRIPOS>ATOM
      1 C         140.7623  144.8347  161.3827 C.ar    1  UNL1        0.1353
      2 C         140.8936  143.6295  162.2661 C.ar    1  UNL1        0.0346
      3 C         139.8365  143.3294  163.2873 C.ar    1  UNL1        0.0058
      4 C         138.6484  144.2344  163.4250 C.ar    1  UNL1        0.0208
      5 C         138.5171  145.4396  162.5416 C.ar    1  UNL1        0.1003
      6 N         139.5740  145.7397  161.5205 N.ar    1  UNL1       -0.2290
      7 C         139.9678  142.1242  164.1707 C.ar    1  UNL1        0.0192
      8 C         140.5573  142.1020  165.5498 C.ar    1  UNL1        0.0801
      9 N         140.4865  140.6937  166.0614 N.ar    1  UNL1       -0.3035
     10 C         139.8532  139.8456  164.9986 C.ar    1  UNL1        0.0832
     11 C         139.5271  138.3826  164.9438 C.ar    1  UNL1        0.1163
     12 N         138.8804  137.8036  163.7205 N.ar    1  UNL1       -0.2408
     13 C         138.5598  138.6877  162.5519 C.ar    1  UNL1        0.0990
     14 C         138.8860  140.1508  162.6066 C.ar    1  UNL1        0.0222
     15 C         139.5327  140.7297  163.8300 C.ar    1  UNL1        0.0206
     16 C         140.9649  140.2172  167.4009 C.ar    1  UNL1        0.0641
     17 C         140.0769  140.3442  168.6032 C.ar    1  UNL1        0.0175
     18 C         140.5553  139.8677  169.9426 C.ar    1  UNL1        0.0015
     19 C         141.9216  139.2641  170.0798 C.ar    1  UNL1        0.0001
     20 C         142.8095  139.1370  168.8775 C.ar    1  UNL1        0.0015
     21 C         142.3311  139.6135  167.5381 C.ar    1  UNL1        0.0175
     22 O         140.1010  144.7125  158.4591 O.2     1  UNL1       -0.2525
     23 C         141.4886  145.0736  158.8998 C.2     1  UNL1        0.3055
     24 N         141.8192  145.1347  160.3616 N.am    1  UNL1       -0.2537
     25 N         142.5456  145.3737  157.8785 N.am    1  UNL1       -0.2903
     26 H         142.7300  145.3717  160.6508 H       1  UNL1        0.1578
     27 H         143.4563  145.6107  158.1677 H       1  UNL1        0.1509
     28 C         142.2149  145.3126  156.4167 C.3     1  UNL1        0.0732
     29 C         141.2706  145.5935  155.2856 C.3     1  UNL1        0.0213
     30 C         142.5865  144.9259  155.0158 C.3     1  UNL1        0.0213
@<TRIPOS>BOND
     1    22    23    2
     2    23    24   am
     3    24     1    1
     4     1     2   ar
     5     2     3   ar
     6     3     7    1
     7     7     8   ar
     8     8     9   ar
     9     9    16    1
    10    16    17   ar
    11    17    18   ar
    12    18    19   ar
    13    19    20   ar
    14    20    21   ar
    15     9    10   ar
    16    10    11   ar
    17    11    12   ar
    18    12    13   ar
    19    13    14   ar
    20    14    15   ar
    21     3     4   ar
    22     4     5   ar
    23     5     6   ar
    24    23    25   am
    25    25    28    1
    26    28    29    1
    27    29    30    1
    28     6     1   ar
    29    30    28    1
    30    15     7   ar
    31    21    16   ar
    32    15    10   ar
    33    24    26    1
    34    25    27    1
@<TRIPOS>MOLECULE
*****
 30 34 0 0 0
SMALL
GASTEIGER

@<TRIPOS>ATOM
      1 C         142.7259  140.4326  170.5881 C.ar    1  UNL1        0.1353
      2 C         142.6660  140.3895  169.0899 C.ar    1  UNL1        0.0346
      3 C         141.4887  140.9767  168.3692 C.ar    1  UNL1        0.0058
      4 C         140.3715  141.6069  169.1467 C.ar    1  UNL1        0.0208
      5 C         140.4315  141.6500  170.6449 C.ar    1  UNL1        0.1003
      6 N         141.6087  141.0628  171.3656 N.ar    1  UNL1       -0.2290
      7 C         141.4287  140.9336  166.8710 C.ar    1  UNL1        0.0192
      8 C         142.4321  141.5332  165.9309 C.ar    1  UNL1        0.0801
      9 N         141.9783  141.2535  164.5288 N.ar    1  UNL1       -0.3035
     10 C         140.6945  140.4811  164.6024 C.ar    1  UNL1        0.0832
     11 C         139.7910  139.9323  163.5383 C.ar    1  UNL1        0.1163
     12 N         138.5478  139.1857  163.9218 N.ar    1  UNL1       -0.2408
     13 C         138.2082  138.9880  165.3694 C.ar    1  UNL1        0.0990
     14 C         139.1117  139.5369  166.4335 C.ar    1  UNL1        0.0222
     15 C         140.3549  140.2834  166.0500 C.ar    1  UNL1        0.0206
     16 C         142.6843  141.6726  163.2734 C.ar    1  UNL1        0.0641
     17 C         142.5718  143.0869  162.7862 C.ar    1  UNL1        0.0175
     18 C         143.2779  143.5060  161.5308 C.ar    1  UNL1        0.0015
     19 C         144.0963  142.5110  160.7627 C.ar    1  UNL1        0.0001
     20 C         144.2088  141.0968  161.2500 C.ar    1  UNL1        0.0015
     21 C         143.5028  140.6777  162.5053 C.ar    1  UNL1        0.0175
     22 O         143.1313  137.4604  170.6260 O.2     1  UNL1       -0.2525
     23 C         144.1059  138.3593  171.3276 C.2     1  UNL1        0.3055
     24 N         143.9032  139.8454  171.3087 N.am    1  UNL1       -0.2537
     25 N         145.2832  137.7720  172.0482 N.am    1  UNL1       -0.2903
     26 H         144.5428  140.4354  171.7692 H       1  UNL1        0.1578
     27 H         145.9228  138.3620  172.5087 H       1  UNL1        0.1509
     28 C         145.4859  136.2859  172.0672 C.3     1  UNL1        0.0732
     29 C         145.0390  134.9088  171.6749 C.3     1  UNL1        0.0213
     30 C         146.2838  135.0890  172.4922 C.3     1  UNL1        0.0213
@<TRIPOS>BOND
     1    22    23    2
     2    23    24   am
     3    24     1    1
     4     1     2   ar
     5     2     3   ar
     6     3     7    1
     7     7     8   ar
     8     8     9   ar
     9     9    16    1
    10    16    17   ar
    11    17    18   ar
    12    18    19   ar
    13    19    20   ar
    14    20    21   ar
    15     9    10   ar
    16    10    11   ar
    17    11    12   ar
    18    12    13   ar
    19    13    14   ar
    20    14    15   ar
    21     3     4   ar
    22     4     5   ar
    23     5     6   ar
    24    23    25   am
    25    25    28    1
    26    28    29    1
    27    29    30    1
    28     6     1   ar
    29    30    28    1
    30    15     7   ar
    31    21    16   ar
    32    15    10   ar
    33    24    26    1
    34    25    27    1
