@<TRIPOS>MOLECULE
*****
 47 53 0 0 0
SMALL
GASTEIGER

@<TRIPOS>ATOM
      1 C         140.7237  137.3934  164.6577 C.3     1  UNL1        0.0320
      2 C         141.9402  138.1695  164.2480 C.3     1  UNL1        0.0932
      3 C         142.8777  138.7005  165.2916 C.3     1  UNL1        0.0286
      4 C         144.0942  139.4766  164.8819 C.3     1  UNL1        0.0193
      5 C         144.3732  139.7216  163.4286 C.3     1  UNL1        0.0700
      6 C         143.4357  139.1905  162.3850 C.3     1  UNL1        0.0193
      7 C         142.2192  138.4145  162.7947 C.3     1  UNL1        0.0286
      8 C         143.6939  139.2908  163.6046 C.3     1  UNL1        0.1562
      9 O         142.5939  138.5891  163.9751 O.3     1  UNL1       -0.3572
     10 N         145.5897  140.4977  163.0189 N.3     1  UNL1       -0.2926
     11 H         145.6542  140.4295  162.0033 H       1  UNL1        0.1236
     12 C         145.7018  141.9533  163.3633 C.3     1  UNL1        0.1152
     13 C         144.5127  142.8545  163.2079 C.ar    1  UNL1        0.0765
     14 C         143.9060  143.5101  164.4129 C.ar    1  UNL1        0.0193
     15 C         142.7171  144.4113  164.2575 C.ar    1  UNL1        0.0411
     16 C         142.1347  144.6568  162.8971 C.ar    1  UNL1        0.1708
     17 C         142.7414  144.0011  161.6921 C.ar    1  UNL1        0.1682
     18 N         143.9304  143.1000  161.8475 N.ar    1  UNL1       -0.2304
     19 N         142.1591  144.2466  160.3317 N.am    1  UNL1       -0.2639
     20 C         140.9701  145.1478  160.1763 C.2     1  UNL1        0.2718
     21 O         140.3878  145.3933  158.8160 O.2     1  UNL1       -0.2707
     22 C         140.3634  145.8035  161.3814 C.3     1  UNL1        0.2898
     23 O         140.9457  145.5580  162.7417 O.3     1  UNL1       -0.4628
     24 H         142.5573  143.8163  159.5409 H       1  UNL1        0.1565
     25 C         139.4650  138.1164  165.0357 C.3     1  UNL1        0.0327
     26 C         140.0027  142.4131  166.2600 C.ar    1  UNL1        0.2250
     27 C         139.4783  143.5134  165.3857 C.ar    1  UNL1        0.0593
     28 C         138.7747  143.1813  164.1033 C.ar    1  UNL1        0.0254
     29 C         138.5955  141.7491  163.6952 C.ar    1  UNL1        0.0990
     30 N         137.8918  141.4171  162.4127 N.ar    1  UNL1       -0.2400
     31 C         137.7125  139.9848  162.0046 C.ar    1  UNL1        0.1281
     32 C         138.2370  138.8846  162.8790 C.ar    1  UNL1        0.1566
     33 F         138.0577  137.4523  162.4709 F       1  UNL1       -0.2028
     34 C         138.9406  139.2166  164.1614 C.ar    1  UNL1        0.0261
     35 C         139.1198  140.6489  164.5695 C.ar    1  UNL1        0.1002
     36 N         139.8235  140.9809  165.8519 N.ar    1  UNL1       -0.2104
     37 O         140.7064  142.7451  167.5425 O.3     1  UNL1       -0.4584
     38 C         140.3529  142.0133  168.8032 C.3     1  UNL1        0.2283
     39 N         139.9391  139.3963  171.2718 N.3     1  UNL1       -0.3136
     40 C         140.9831  139.7343  170.2492 C.3     1  UNL1        0.1501
     41 C         142.2882  139.1282  169.8255 C.2     1  UNL1        0.2384
     42 O         143.0898  137.9332  170.2490 O.2     1  UNL1       -0.2736
     43 N         142.4595  140.2122  168.8030 N.am    1  UNL1       -0.2998
     44 C         141.1546  140.8182  169.2266 C.3     1  UNL1        0.1386
     45 H         140.2164  138.5536  171.7751 H       1  UNL1        0.1193
     46 H         139.0462  139.2357  170.8058 H       1  UNL1        0.1193
     47 H         143.1448  140.4340  168.1318 H       1  UNL1        0.1496
@<TRIPOS>BOND
     1    40    39    1
     2    40    41    1
     3    41    42    2
     4    41    43   am
     5    43    44    1
     6    44    38    1
     7    38    37    1
     8    37    26    1
     9    26    27   ar
    10    27    28   ar
    11    28    29   ar
    12    29    30   ar
    13    30    31   ar
    14    31    32   ar
    15    32    33    1
    16    32    34   ar
    17    34    25    1
    18    25     1    1
    19     1     2    1
    20     2     3    1
    21     3     4    1
    22     4     5    1
    23     5    10    1
    24    10    12    1
    25    12    13    1
    26    13    14   ar
    27    14    15   ar
    28    15    16   ar
    29    16    17   ar
    30    17    18   ar
    31    17    19    1
    32    19    20   am
    33    20    21    2
    34    20    22    1
    35    22    23    1
    36     5     6    1
    37     6     7    1
    38     5     8    1
    39     8     9    1
    40    34    35   ar
    41    35    36   ar
    42    44    40    1
    43    36    26   ar
    44    35    29   ar
    45     7     2    1
    46     9     2    1
    47    18    13   ar
    48    23    16    1
    49    39    45    1
    50    39    46    1
    51    43    47    1
    52    10    11    1
    53    19    24    1
@<TRIPOS>MOLECULE
*****
 47 53 0 0 0
SMALL
GASTEIGER

@<TRIPOS>ATOM
      1 C         137.7396  144.3405  163.9505 C.3     1  UNL1        0.0320
      2 C         137.8007  143.0228  163.2364 C.3     1  UNL1        0.0932
      3 C         138.1082  142.9785  161.7690 C.3     1  UNL1        0.0286
      4 C         138.1692  141.6607  161.0549 C.3     1  UNL1        0.0193
      5 C         137.9227  140.3873  161.8084 C.3     1  UNL1        0.0700
      6 C         137.6152  140.4317  163.2759 C.3     1  UNL1        0.0193
      7 C         137.5542  141.7494  163.9899 C.3     1  UNL1        0.0286
      8 C         137.8785  141.0854  162.2427 C.3     1  UNL1        0.1562
      9 O         137.8233  142.2769  162.8884 O.3     1  UNL1       -0.3572
     10 N         137.9838  139.0696  161.0943 N.3     1  UNL1       -0.2926
     11 H         137.4229  139.1670  160.2480 H       1  UNL1        0.1236
     12 C         139.3083  138.5053  160.6735 C.3     1  UNL1        0.1152
     13 C         140.4734  138.5423  161.6176 C.ar    1  UNL1        0.0765
     14 C         140.5503  137.5648  162.7527 C.ar    1  UNL1        0.0193
     15 C         141.7154  137.6019  163.6967 C.ar    1  UNL1        0.0411
     16 C         142.8035  138.6165  163.5056 C.ar    1  UNL1        0.1708
     17 C         142.7266  139.5940  162.3705 C.ar    1  UNL1        0.1682
     18 N         141.5616  139.5569  161.4265 N.ar    1  UNL1       -0.2304
     19 N         143.8148  140.6086  162.1794 N.am    1  UNL1       -0.2639
     20 C         144.9799  140.6456  163.1234 C.2     1  UNL1        0.2718
     21 O         146.0680  141.6602  162.9323 O.2     1  UNL1       -0.2707
     22 C         145.0568  139.6681  164.2586 C.3     1  UNL1        0.2898
     23 O         143.9686  138.6535  164.4497 O.3     1  UNL1       -0.4628
     24 H         143.7643  141.2501  161.4344 H       1  UNL1        0.1565
     25 C         138.8635  144.7577  164.8522 C.3     1  UNL1        0.0327
     26 C         140.5154  141.3093  167.2248 C.ar    1  UNL1        0.2250
     27 C         141.9084  140.8181  166.9635 C.ar    1  UNL1        0.0593
     28 C         142.7507  141.4764  165.9113 C.ar    1  UNL1        0.0254
     29 C         142.2001  142.6259  165.1205 C.ar    1  UNL1        0.0990
     30 N         143.0425  143.2842  164.0683 N.ar    1  UNL1       -0.2400
     31 C         142.4918  144.4337  163.2774 C.ar    1  UNL1        0.1281
     32 C         141.0988  144.9249  163.5387 C.ar    1  UNL1        0.1566
     33 F         140.5481  146.0744  162.7479 F       1  UNL1       -0.2028
     34 C         140.2564  144.2666  164.5909 C.ar    1  UNL1        0.0261
     35 C         140.8071  143.1171  165.3817 C.ar    1  UNL1        0.1002
     36 N         139.9648  142.4588  166.4339 N.ar    1  UNL1       -0.2104
     37 O         139.6730  140.6510  168.2770 O.3     1  UNL1       -0.4584
     38 C         139.9250  140.9380  169.7275 C.3     1  UNL1        0.2283
     39 N         143.4136  140.5245  170.6064 N.3     1  UNL1       -0.3136
     40 C         142.4802  141.6930  170.4910 C.3     1  UNL1        0.1501
     41 C         142.6052  143.1742  170.6918 C.2     1  UNL1        0.2384
     42 O         143.7154  144.1005  171.0913 O.2     1  UNL1       -0.2736
     43 N         141.1602  143.3454  170.3278 N.am    1  UNL1       -0.2998
     44 C         141.0352  141.8643  170.1269 C.3     1  UNL1        0.1386
     45 H         144.3370  140.8535  170.8886 H       1  UNL1        0.1193
     46 H         143.4817  140.0533  169.7043 H       1  UNL1        0.1193
     47 H         140.5475  144.1123  170.2520 H       1  UNL1        0.1496
@<TRIPOS>BOND
     1    40    39    1
     2    40    41    1
     3    41    42    2
     4    41    43   am
     5    43    44    1
     6    44    38    1
     7    38    37    1
     8    37    26    1
     9    26    27   ar
    10    27    28   ar
    11    28    29   ar
    12    29    30   ar
    13    30    31   ar
    14    31    32   ar
    15    32    33    1
    16    32    34   ar
    17    34    25    1
    18    25     1    1
    19     1     2    1
    20     2     3    1
    21     3     4    1
    22     4     5    1
    23     5    10    1
    24    10    12    1
    25    12    13    1
    26    13    14   ar
    27    14    15   ar
    28    15    16   ar
    29    16    17   ar
    30    17    18   ar
    31    17    19    1
    32    19    20   am
    33    20    21    2
    34    20    22    1
    35    22    23    1
    36     5     6    1
    37     6     7    1
    38     5     8    1
    39     8     9    1
    40    34    35   ar
    41    35    36   ar
    42    44    40    1
    43    36    26   ar
    44    35    29   ar
    45     7     2    1
    46     9     2    1
    47    18    13   ar
    48    23    16    1
    49    39    45    1
    50    39    46    1
    51    43    47    1
    52    10    11    1
    53    19    24    1
@<TRIPOS>MOLECULE
*****
 47 53 0 0 0
SMALL
GASTEIGER

@<TRIPOS>ATOM
      1 C         137.7781  143.7955  164.6198 C.3     1  UNL1        0.0320
      2 C         137.8315  142.4649  163.9294 C.3     1  UNL1        0.0932
      3 C         138.0642  141.2154  164.7260 C.3     1  UNL1        0.0286
      4 C         138.1177  139.8848  164.0355 C.3     1  UNL1        0.0193
      5 C         137.9385  139.8037  162.5485 C.3     1  UNL1        0.0700
      6 C         137.7058  141.0533  161.7519 C.3     1  UNL1        0.0193
      7 C         137.6523  142.3838  162.4423 C.3     1  UNL1        0.0286
      8 C         137.9012  140.5555  162.8824 C.3     1  UNL1        0.1562
      9 O         137.8528  141.7586  163.5068 O.3     1  UNL1       -0.3572
     10 N         137.9919  138.4732  161.8581 N.3     1  UNL1       -0.2926
     11 H         137.2595  138.4802  161.1482 H       1  UNL1        0.1236
     12 C         139.2527  138.0328  161.1751 C.3     1  UNL1        0.1152
     13 C         140.5851  138.3255  161.7988 C.ar    1  UNL1        0.0765
     14 C         141.6901  138.9083  160.9686 C.ar    1  UNL1        0.0193
     15 C         143.0225  139.2010  161.5923 C.ar    1  UNL1        0.0411
     16 C         143.2499  138.9109  163.0463 C.ar    1  UNL1        0.1708
     17 C         142.1449  138.3281  163.8766 C.ar    1  UNL1        0.1682
     18 N         140.8126  138.0354  163.2528 N.ar    1  UNL1       -0.2304
     19 N         142.3723  138.0380  165.3306 N.am    1  UNL1       -0.2639
     20 C         143.7047  138.3307  165.9543 C.2     1  UNL1        0.2718
     21 O         143.9321  138.0406  167.4083 O.2     1  UNL1       -0.2707
     22 C         144.8097  138.9135  165.1241 C.3     1  UNL1        0.2898
     23 O         144.5823  139.2036  163.6700 O.3     1  UNL1       -0.4628
     24 H         141.6471  137.6555  165.8755 H       1  UNL1        0.1565
     25 C         139.0494  144.5104  164.9700 C.3     1  UNL1        0.0327
     26 C         142.8475  142.3806  166.1052 C.ar    1  UNL1        0.2250
     27 C         144.0073  142.3574  165.1543 C.ar    1  UNL1        0.0593
     28 C         143.9011  143.0442  163.8250 C.ar    1  UNL1        0.0254
     29 C         142.6351  143.7541  163.4466 C.ar    1  UNL1        0.0990
     30 N         142.5289  144.4409  162.1173 N.ar    1  UNL1       -0.2400
     31 C         141.2629  145.1509  161.7389 C.ar    1  UNL1        0.1281
     32 C         140.1030  145.1740  162.6899 C.ar    1  UNL1        0.1566
     33 F         138.8370  145.8839  162.3115 F       1  UNL1       -0.2028
     34 C         140.2093  144.4872  164.0191 C.ar    1  UNL1        0.0261
     35 C         141.4753  143.7773  164.3975 C.ar    1  UNL1        0.1002
     36 N         141.5815  143.0905  165.7268 N.ar    1  UNL1       -0.2104
     37 O         142.9537  141.6938  167.4345 O.3     1  UNL1       -0.4584
     38 C         142.2324  142.2505  168.6260 C.3     1  UNL1        0.2283
     39 N         140.4800  142.1799  171.7943 N.3     1  UNL1       -0.3136
     40 C         140.2723  141.5416  170.4529 C.3     1  UNL1        0.1501
     41 C         139.2526  140.6096  169.8683 C.2     1  UNL1        0.2384
     42 O         138.0184  139.9300  170.3828 O.2     1  UNL1       -0.2736
     43 N         139.9786  140.6389  168.5559 N.am    1  UNL1       -0.2998
     44 C         140.9981  141.5708  169.1406 C.3     1  UNL1        0.1386
     45 H         139.7358  141.8889  172.4282 H       1  UNL1        0.1193
     46 H         140.4637  143.1949  171.6940 H       1  UNL1        0.1193
     47 H         139.8422  140.2199  167.6755 H       1  UNL1        0.1496
@<TRIPOS>BOND
     1    40    39    1
     2    40    41    1
     3    41    42    2
     4    41    43   am
     5    43    44    1
     6    44    38    1
     7    38    37    1
     8    37    26    1
     9    26    27   ar
    10    27    28   ar
    11    28    29   ar
    12    29    30   ar
    13    30    31   ar
    14    31    32   ar
    15    32    33    1
    16    32    34   ar
    17    34    25    1
    18    25     1    1
    19     1     2    1
    20     2     3    1
    21     3     4    1
    22     4     5    1
    23     5    10    1
    24    10    12    1
    25    12    13    1
    26    13    14   ar
    27    14    15   ar
    28    15    16   ar
    29    16    17   ar
    30    17    18   ar
    31    17    19    1
    32    19    20   am
    33    20    21    2
    34    20    22    1
    35    22    23    1
    36     5     6    1
    37     6     7    1
    38     5     8    1
    39     8     9    1
    40    34    35   ar
    41    35    36   ar
    42    44    40    1
    43    36    26   ar
    44    35    29   ar
    45     7     2    1
    46     9     2    1
    47    18    13   ar
    48    23    16    1
    49    39    45    1
    50    39    46    1
    51    43    47    1
    52    10    11    1
    53    19    24    1
@<TRIPOS>MOLECULE
*****
 47 53 0 0 0
SMALL
GASTEIGER

@<TRIPOS>ATOM
      1 C         144.3777  141.0313  164.1373 C.3     1  UNL1        0.0320
      2 C         143.5867  142.2726  163.8479 C.3     1  UNL1        0.0932
      3 C         142.7099  142.8677  164.9095 C.3     1  UNL1        0.0286
      4 C         141.9189  144.1090  164.6201 C.3     1  UNL1        0.0193
      5 C         142.0048  144.7551  163.2691 C.3     1  UNL1        0.0700
      6 C         142.8817  144.1599  162.2075 C.3     1  UNL1        0.0193
      7 C         143.6726  142.9187  162.4969 C.3     1  UNL1        0.0286
      8 C         142.4569  144.0760  163.3808 C.3     1  UNL1        0.1562
      9 O         143.1721  142.9536  163.6425 O.3     1  UNL1       -0.3572
     10 N         141.2139  145.9963  162.9797 N.3     1  UNL1       -0.2926
     11 H         141.7992  146.5874  162.3894 H       1  UNL1        0.1236
     12 C         139.8794  145.8943  162.3026 C.3     1  UNL1        0.1152
     13 C         139.2141  144.5581  162.1534 C.ar    1  UNL1        0.0765
     14 C         138.3719  144.0111  163.2675 C.ar    1  UNL1        0.0193
     15 C         137.7068  142.6749  163.1183 C.ar    1  UNL1        0.0411
     16 C         137.8838  141.8859  161.8550 C.ar    1  UNL1        0.1708
     17 C         138.7261  142.4329  160.7409 C.ar    1  UNL1        0.1682
     18 N         139.3912  143.7690  160.8901 N.ar    1  UNL1       -0.2304
     19 N         138.9032  141.6439  159.4775 N.am    1  UNL1       -0.2639
     20 C         138.2380  140.3077  159.3283 C.2     1  UNL1        0.2718
     21 O         138.4151  139.5187  158.0650 O.2     1  UNL1       -0.2707
     22 C         137.3957  139.7606  160.4425 C.3     1  UNL1        0.2898
     23 O         137.2186  140.5497  161.7058 O.3     1  UNL1       -0.4628
     24 H         139.4560  142.0029  158.7463 H       1  UNL1        0.1565
     25 C         143.7181  139.8598  164.8025 C.3     1  UNL1        0.0327
     26 C         139.6699  139.8309  166.7674 C.ar    1  UNL1        0.2250
     27 C         138.5173  139.1406  166.1003 C.ar    1  UNL1        0.0593
     28 C         138.7142  138.4600  164.7782 C.ar    1  UNL1        0.0254
     29 C         140.0636  138.4697  164.1232 C.ar    1  UNL1        0.0990
     30 N         140.2604  137.7891  162.8011 N.ar    1  UNL1       -0.2400
     31 C         141.6098  137.7987  162.1461 C.ar    1  UNL1        0.1281
     32 C         142.7624  138.4890  162.8133 C.ar    1  UNL1        0.1566
     33 F         144.1118  138.4986  162.1583 F       1  UNL1       -0.2028
     34 C         142.5656  139.1696  164.1354 C.ar    1  UNL1        0.0261
     35 C         141.2162  139.1599  164.7904 C.ar    1  UNL1        0.1002
     36 N         141.0193  139.8405  166.1125 N.ar    1  UNL1       -0.2104
     37 O         139.4731  140.5115  168.0896 O.3     1  UNL1       -0.4584
     38 C         140.3948  140.2086  169.2336 C.3     1  UNL1        0.2283
     39 N         141.8844  142.1279  171.9190 N.3     1  UNL1       -0.3136
     40 C         142.2811  141.7851  170.5136 C.3     1  UNL1        0.1501
     41 C         143.4592  142.0954  169.6385 C.2     1  UNL1        0.2384
     42 O         144.7284  142.8769  169.8062 O.2     1  UNL1       -0.2736
     43 N         142.8421  141.3004  168.5262 N.am    1  UNL1       -0.2998
     44 C         141.6641  140.9902  169.4013 C.3     1  UNL1        0.1386
     45 H         142.6082  142.7066  172.3451 H       1  UNL1        0.1193
     46 H         141.7729  141.2701  172.4596 H       1  UNL1        0.1193
     47 H         143.1024  141.0754  167.6037 H       1  UNL1        0.1496
@<TRIPOS>BOND
     1    40    39    1
     2    40    41    1
     3    41    42    2
     4    41    43   am
     5    43    44    1
     6    44    38    1
     7    38    37    1
     8    37    26    1
     9    26    27   ar
    10    27    28   ar
    11    28    29   ar
    12    29    30   ar
    13    30    31   ar
    14    31    32   ar
    15    32    33    1
    16    32    34   ar
    17    34    25    1
    18    25     1    1
    19     1     2    1
    20     2     3    1
    21     3     4    1
    22     4     5    1
    23     5    10    1
    24    10    12    1
    25    12    13    1
    26    13    14   ar
    27    14    15   ar
    28    15    16   ar
    29    16    17   ar
    30    17    18   ar
    31    17    19    1
    32    19    20   am
    33    20    21    2
    34    20    22    1
    35    22    23    1
    36     5     6    1
    37     6     7    1
    38     5     8    1
    39     8     9    1
    40    34    35   ar
    41    35    36   ar
    42    44    40    1
    43    36    26   ar
    44    35    29   ar
    45     7     2    1
    46     9     2    1
    47    18    13   ar
    48    23    16    1
    49    39    45    1
    50    39    46    1
    51    43    47    1
    52    10    11    1
    53    19    24    1
@<TRIPOS>MOLECULE
*****
 47 53 0 0 0
SMALL
GASTEIGER

@<TRIPOS>ATOM
      1 C         142.9568  138.3241  164.9896 C.3     1  UNL1        0.0320
      2 C         141.6955  138.2124  164.1854 C.3     1  UNL1        0.0932
      3 C         140.3755  138.0511  164.8793 C.3     1  UNL1        0.0286
      4 C         139.1141  137.9394  164.0751 C.3     1  UNL1        0.0193
      5 C         139.1729  137.9890  162.5771 C.3     1  UNL1        0.0700
      6 C         140.4930  138.1503  161.8833 C.3     1  UNL1        0.0193
      7 C         141.7542  138.2620  162.6874 C.3     1  UNL1        0.0286
      8 C         139.8908  138.0543  162.9751 C.3     1  UNL1        0.1562
      9 O         141.0312  138.1553  163.7023 O.3     1  UNL1       -0.3572
     10 N         137.9116  137.8773  161.7730 N.3     1  UNL1       -0.2926
     11 H         137.2071  137.4668  162.3857 H       1  UNL1        0.1236
     12 C         137.2970  139.1044  161.1676 C.3     1  UNL1        0.1152
     13 C         137.7815  140.4646  161.5744 C.ar    1  UNL1        0.0765
     14 C         137.3341  141.0619  162.8756 C.ar    1  UNL1        0.0193
     15 C         137.8186  142.4219  163.2823 C.ar    1  UNL1        0.0411
     16 C         138.7504  143.1847  162.3879 C.ar    1  UNL1        0.1708
     17 C         139.1977  142.5874  161.0868 C.ar    1  UNL1        0.1682
     18 N         138.7133  141.2273  160.6800 N.ar    1  UNL1       -0.2304
     19 N         140.1295  143.3501  160.1923 N.am    1  UNL1       -0.2639
     20 C         140.6139  144.7102  160.5991 C.2     1  UNL1        0.2718
     21 O         141.5457  145.4729  159.7046 O.2     1  UNL1       -0.2707
     22 C         140.1666  145.3076  161.9003 C.3     1  UNL1        0.2898
     23 O         139.2348  144.5448  162.7947 O.3     1  UNL1       -0.4628
     24 H         140.4231  142.9581  159.3383 H       1  UNL1        0.1565
     25 C         143.4114  139.6633  165.4895 C.3     1  UNL1        0.0327
     26 C         142.7067  139.6738  169.9340 C.ar    1  UNL1        0.2250
     27 C         141.7155  140.6264  170.5340 C.ar    1  UNL1        0.0593
     28 C         140.9591  141.5754  169.6524 C.ar    1  UNL1        0.0254
     29 C         141.1940  141.5719  168.1709 C.ar    1  UNL1        0.0990
     30 N         140.4376  142.5211  167.2894 N.ar    1  UNL1       -0.2400
     31 C         140.6725  142.5176  165.8079 C.ar    1  UNL1        0.1281
     32 C         141.6638  141.5649  165.2080 C.ar    1  UNL1        0.1566
     33 F         141.8987  141.5614  163.7265 F       1  UNL1       -0.2028
     34 C         142.4202  140.6158  166.0895 C.ar    1  UNL1        0.0261
     35 C         142.1853  140.6194  167.5710 C.ar    1  UNL1        0.1002
     36 N         142.9416  139.6703  168.4525 N.ar    1  UNL1       -0.2104
     37 O         143.4631  138.7246  170.8156 O.3     1  UNL1       -0.4584
     38 C         143.5774  137.2780  170.4361 C.3     1  UNL1        0.2283
     39 N         147.0826  136.9531  171.2859 N.3     1  UNL1       -0.3136
     40 C         145.8315  136.2055  171.6407 C.3     1  UNL1        0.1501
     41 C         145.5141  135.0137  172.4944 C.2     1  UNL1        0.2384
     42 O         146.3163  134.0758  173.3470 O.2     1  UNL1       -0.2736
     43 N         144.0622  135.1483  172.1424 N.am    1  UNL1       -0.2998
     44 C         144.3796  136.3400  171.2887 C.3     1  UNL1        0.1386
     45 H         147.8804  136.5212  171.7521 H       1  UNL1        0.1193
     46 H         146.9963  137.9233  171.5885 H       1  UNL1        0.1193
     47 H         143.2410  134.6577  172.3752 H       1  UNL1        0.1496
@<TRIPOS>BOND
     1    40    39    1
     2    40    41    1
     3    41    42    2
     4    41    43   am
     5    43    44    1
     6    44    38    1
     7    38    37    1
     8    37    26    1
     9    26    27   ar
    10    27    28   ar
    11    28    29   ar
    12    29    30   ar
    13    30    31   ar
    14    31    32   ar
    15    32    33    1
    16    32    34   ar
    17    34    25    1
    18    25     1    1
    19     1     2    1
    20     2     3    1
    21     3     4    1
    22     4     5    1
    23     5    10    1
    24    10    12    1
    25    12    13    1
    26    13    14   ar
    27    14    15   ar
    28    15    16   ar
    29    16    17   ar
    30    17    18   ar
    31    17    19    1
    32    19    20   am
    33    20    21    2
    34    20    22    1
    35    22    23    1
    36     5     6    1
    37     6     7    1
    38     5     8    1
    39     8     9    1
    40    34    35   ar
    41    35    36   ar
    42    44    40    1
    43    36    26   ar
    44    35    29   ar
    45     7     2    1
    46     9     2    1
    47    18    13   ar
    48    23    16    1
    49    39    45    1
    50    39    46    1
    51    43    47    1
    52    10    11    1
    53    19    24    1
@<TRIPOS>MOLECULE
*****
 47 53 0 0 0
SMALL
GASTEIGER

@<TRIPOS>ATOM
      1 C         143.9149  142.7413  165.4648 C.3     1  UNL1        0.0320
      2 C         142.6536  141.9782  165.7424 C.3     1  UNL1        0.0932
      3 C         141.3410  142.4842  165.2219 C.3     1  UNL1        0.0286
      4 C         140.0797  141.7211  165.4995 C.3     1  UNL1        0.0193
      5 C         140.1312  140.4521  166.2976 C.3     1  UNL1        0.0700
      6 C         141.4439  139.9461  166.8182 C.3     1  UNL1        0.0193
      7 C         142.7051  140.7092  166.5405 C.3     1  UNL1        0.0286
      8 C         140.8487  140.8357  166.1712 C.3     1  UNL1        0.1562
      9 O         141.9891  141.5257  165.9201 O.3     1  UNL1       -0.3572
     10 N         138.8700  139.6890  166.5752 N.3     1  UNL1       -0.2926
     11 H         138.1010  140.3553  166.5042 H       1  UNL1        0.1236
     12 C         138.5028  138.5113  165.7219 C.3     1  UNL1        0.1152
     13 C         138.9508  138.4528  164.2915 C.ar    1  UNL1        0.0765
     14 C         140.1767  137.6720  163.9209 C.ar    1  UNL1        0.0193
     15 C         140.6246  137.6135  162.4906 C.ar    1  UNL1        0.0411
     16 C         139.8466  138.3357  161.4308 C.ar    1  UNL1        0.1708
     17 C         138.6207  139.1165  161.8015 C.ar    1  UNL1        0.1682
     18 N         138.1727  139.1750  163.2318 N.ar    1  UNL1       -0.2304
     19 N         137.8426  139.8388  160.7417 N.am    1  UNL1       -0.2639
     20 C         138.2906  139.7803  159.3114 C.2     1  UNL1        0.2718
     21 O         137.5125  140.5025  158.2517 O.2     1  UNL1       -0.2707
     22 C         139.5166  138.9995  158.9407 C.3     1  UNL1        0.2898
     23 O         140.2946  138.2772  160.0004 O.3     1  UNL1       -0.4628
     24 H         137.0380  140.3512  160.9850 H       1  UNL1        0.1565
     25 C         144.5031  142.7414  164.0850 C.3     1  UNL1        0.0327
     26 C         142.2877  143.6026  160.2639 C.ar    1  UNL1        0.2250
     27 C         141.9702  142.4867  159.3132 C.ar    1  UNL1        0.0593
     28 C         142.3912  141.0837  159.6362 C.ar    1  UNL1        0.0254
     29 C         143.1297  140.7967  160.9099 C.ar    1  UNL1        0.0990
     30 N         143.5507  139.3936  161.2328 N.ar    1  UNL1       -0.2400
     31 C         144.2891  139.1065  162.5065 C.ar    1  UNL1        0.1281
     32 C         144.6066  140.2225  163.4573 C.ar    1  UNL1        0.1566
     33 F         145.3451  139.9354  164.7309 F       1  UNL1       -0.2028
     34 C         144.1856  141.6255  163.1343 C.ar    1  UNL1        0.0261
     35 C         143.4472  141.9126  161.8606 C.ar    1  UNL1        0.1002
     36 N         143.0262  143.3156  161.5376 N.ar    1  UNL1       -0.2104
     37 O         141.8667  145.0057  159.9410 O.3     1  UNL1       -0.4584
     38 C         140.4718  145.4607  160.2527 C.3     1  UNL1        0.2283
     39 N         141.8494  145.6815  163.5944 N.3     1  UNL1       -0.3136
     40 C         140.4932  145.3910  163.0234 C.3     1  UNL1        0.1501
     41 C         139.1457  145.0716  163.5999 C.2     1  UNL1        0.2384
     42 O         138.5965  144.9104  164.9864 O.2     1  UNL1       -0.2736
     43 N         138.5752  144.9802  162.2157 N.am    1  UNL1       -0.2998
     44 C         139.9225  145.2995  161.6392 C.3     1  UNL1        0.1386
     45 H         141.8047  145.6440  164.6128 H       1  UNL1        0.1193
     46 H         142.1497  146.6112  163.3013 H       1  UNL1        0.1193
     47 H         137.6850  144.7895  161.8408 H       1  UNL1        0.1496
@<TRIPOS>BOND
     1    40    39    1
     2    40    41    1
     3    41    42    2
     4    41    43   am
     5    43    44    1
     6    44    38    1
     7    38    37    1
     8    37    26    1
     9    26    27   ar
    10    27    28   ar
    11    28    29   ar
    12    29    30   ar
    13    30    31   ar
    14    31    32   ar
    15    32    33    1
    16    32    34   ar
    17    34    25    1
    18    25     1    1
    19     1     2    1
    20     2     3    1
    21     3     4    1
    22     4     5    1
    23     5    10    1
    24    10    12    1
    25    12    13    1
    26    13    14   ar
    27    14    15   ar
    28    15    16   ar
    29    16    17   ar
    30    17    18   ar
    31    17    19    1
    32    19    20   am
    33    20    21    2
    34    20    22    1
    35    22    23    1
    36     5     6    1
    37     6     7    1
    38     5     8    1
    39     8     9    1
    40    34    35   ar
    41    35    36   ar
    42    44    40    1
    43    36    26   ar
    44    35    29   ar
    45     7     2    1
    46     9     2    1
    47    18    13   ar
    48    23    16    1
    49    39    45    1
    50    39    46    1
    51    43    47    1
    52    10    11    1
    53    19    24    1
@<TRIPOS>MOLECULE
*****
 47 53 0 0 0
SMALL
GASTEIGER

@<TRIPOS>ATOM
      1 C         144.1669  138.8207  163.9972 C.3     1  UNL1        0.0320
      2 C         142.8559  138.6214  163.2959 C.3     1  UNL1        0.0932
      3 C         141.6825  138.0621  164.0443 C.3     1  UNL1        0.0286
      4 C         140.3715  137.8628  163.3430 C.3     1  UNL1        0.0193
      5 C         140.2341  138.2228  161.8934 C.3     1  UNL1        0.0700
      6 C         141.4077  138.7821  161.1450 C.3     1  UNL1        0.0193
      7 C         142.7186  138.9814  161.8463 C.3     1  UNL1        0.0286
      8 C         140.9725  138.3499  162.2349 C.3     1  UNL1        0.1562
      9 O         142.1578  138.5300  162.8690 O.3     1  UNL1       -0.3572
     10 N         138.9232  138.0235  161.1921 N.3     1  UNL1       -0.2926
     11 H         138.5862  137.0975  161.4553 H       1  UNL1        0.1236
     12 C         137.7923  138.9797  161.4302 C.3     1  UNL1        0.1152
     13 C         138.0748  140.4377  161.6417 C.ar    1  UNL1        0.0765
     14 C         137.3736  141.1865  162.7361 C.ar    1  UNL1        0.0193
     15 C         137.6561  142.6443  162.9475 C.ar    1  UNL1        0.0411
     16 C         138.6397  143.3535  162.0645 C.ar    1  UNL1        0.1708
     17 C         139.3409  142.6047  160.9702 C.ar    1  UNL1        0.1682
     18 N         139.0584  141.1468  160.7587 N.ar    1  UNL1       -0.2304
     19 N         140.3245  143.3138  160.0872 N.am    1  UNL1       -0.2639
     20 C         140.6069  144.7717  160.2986 C.2     1  UNL1        0.2718
     21 O         141.5906  145.4808  159.4156 O.2     1  UNL1       -0.2707
     22 C         139.9058  145.5206  161.3930 C.3     1  UNL1        0.2898
     23 O         138.9221  144.8114  162.2760 O.3     1  UNL1       -0.4628
     24 H         140.7847  142.8224  159.3689 H       1  UNL1        0.1565
     25 C         144.4065  140.0649  164.8000 C.3     1  UNL1        0.0327
     26 C         140.5402  141.5289  166.5772 C.ar    1  UNL1        0.2250
     27 C         139.9555  142.8353  166.1283 C.ar    1  UNL1        0.0593
     28 C         140.6597  143.6536  165.0869 C.ar    1  UNL1        0.0254
     29 C         141.9484  143.1656  164.4945 C.ar    1  UNL1        0.0990
     30 N         142.6526  143.9841  163.4531 N.ar    1  UNL1       -0.2400
     31 C         143.9413  143.4961  162.8607 C.ar    1  UNL1        0.1281
     32 C         144.5260  142.1897  163.3097 C.ar    1  UNL1        0.1566
     33 F         145.8147  141.7017  162.7173 F       1  UNL1       -0.2028
     34 C         143.8218  141.3713  164.3510 C.ar    1  UNL1        0.0261
     35 C         142.5331  141.8593  164.9434 C.ar    1  UNL1        0.1002
     36 N         141.8289  141.0409  165.9848 N.ar    1  UNL1       -0.2104
     37 O         139.8361  140.7105  167.6186 O.3     1  UNL1       -0.4584
     38 C         140.4903  140.4608  168.9451 C.3     1  UNL1        0.2283
     39 N         139.9941  143.7851  170.2929 N.3     1  UNL1       -0.3136
     40 C         141.1768  142.8813  170.1079 C.3     1  UNL1        0.1501
     41 C         142.6438  142.9800  170.4046 C.2     1  UNL1        0.2384
     42 O         143.5358  144.0235  171.0091 O.2     1  UNL1       -0.2736
     43 N         142.8493  141.6030  169.8463 N.am    1  UNL1       -0.2998
     44 C         141.3824  141.5043  169.5496 C.3     1  UNL1        0.1386
     45 H         140.2979  144.6590  170.7224 H       1  UNL1        0.1193
     46 H         139.3093  143.3297  170.8962 H       1  UNL1        0.1193
     47 H         143.6256  141.0098  169.7248 H       1  UNL1        0.1496
@<TRIPOS>BOND
     1    40    39    1
     2    40    41    1
     3    41    42    2
     4    41    43   am
     5    43    44    1
     6    44    38    1
     7    38    37    1
     8    37    26    1
     9    26    27   ar
    10    27    28   ar
    11    28    29   ar
    12    29    30   ar
    13    30    31   ar
    14    31    32   ar
    15    32    33    1
    16    32    34   ar
    17    34    25    1
    18    25     1    1
    19     1     2    1
    20     2     3    1
    21     3     4    1
    22     4     5    1
    23     5    10    1
    24    10    12    1
    25    12    13    1
    26    13    14   ar
    27    14    15   ar
    28    15    16   ar
    29    16    17   ar
    30    17    18   ar
    31    17    19    1
    32    19    20   am
    33    20    21    2
    34    20    22    1
    35    22    23    1
    36     5     6    1
    37     6     7    1
    38     5     8    1
    39     8     9    1
    40    34    35   ar
    41    35    36   ar
    42    44    40    1
    43    36    26   ar
    44    35    29   ar
    45     7     2    1
    46     9     2    1
    47    18    13   ar
    48    23    16    1
    49    39    45    1
    50    39    46    1
    51    43    47    1
    52    10    11    1
    53    19    24    1
@<TRIPOS>MOLECULE
*****
 47 53 0 0 0
SMALL
GASTEIGER

@<TRIPOS>ATOM
      1 C         137.9306  143.9436  164.7772 C.3     1  UNL1        0.0320
      2 C         137.9501  142.5851  164.1414 C.3     1  UNL1        0.0932
      3 C         138.3172  141.3807  164.9565 C.3     1  UNL1        0.0286
      4 C         138.3367  140.0222  164.3207 C.3     1  UNL1        0.0193
      5 C         137.9889  139.8683  162.8697 C.3     1  UNL1        0.0700
      6 C         137.6216  141.0728  162.0546 C.3     1  UNL1        0.0193
      7 C         137.6022  142.4312  162.6904 C.3     1  UNL1        0.0286
      8 C         137.9643  140.6330  163.1741 C.3     1  UNL1        0.1562
      9 O         137.9468  141.8613  163.7490 O.3     1  UNL1       -0.3572
     10 N         138.0082  138.5099  162.2339 N.3     1  UNL1       -0.2926
     11 H         137.3702  138.5477  161.4390 H       1  UNL1        0.1236
     12 C         139.2986  137.9377  161.7265 C.3     1  UNL1        0.1152
     13 C         140.1090  138.6946  160.7163 C.ar    1  UNL1        0.0765
     14 C         139.7560  138.6161  159.2606 C.ar    1  UNL1        0.0193
     15 C         140.5663  139.3731  158.2505 C.ar    1  UNL1        0.0411
     16 C         141.7296  140.2086  158.6962 C.ar    1  UNL1        0.1708
     17 C         142.0827  140.2871  160.1519 C.ar    1  UNL1        0.1682
     18 N         141.2723  139.5301  161.1620 N.ar    1  UNL1       -0.2304
     19 N         143.2460  141.1226  160.5975 N.am    1  UNL1       -0.2639
     20 C         144.0563  141.8795  159.5875 C.2     1  UNL1        0.2718
     21 O         145.2197  142.7150  160.0331 O.2     1  UNL1       -0.2707
     22 C         143.7033  141.8010  158.1316 C.3     1  UNL1        0.2898
     23 O         142.5400  140.9656  157.6860 O.3     1  UNL1       -0.4628
     24 H         143.4777  141.1741  161.5530 H       1  UNL1        0.1565
     25 C         139.1999  144.7341  164.8963 C.3     1  UNL1        0.0327
     26 C         142.8014  142.3257  166.1122 C.ar    1  UNL1        0.2250
     27 C         143.9185  142.1022  165.1365 C.ar    1  UNL1        0.0593
     28 C         143.8351  142.6816  163.7555 C.ar    1  UNL1        0.0254
     29 C         142.6346  143.4844  163.3502 C.ar    1  UNL1        0.0990
     30 N         142.5512  144.0638  161.9690 N.ar    1  UNL1       -0.2400
     31 C         141.3507  144.8667  161.5637 C.ar    1  UNL1        0.1281
     32 C         140.2336  145.0901  162.5396 C.ar    1  UNL1        0.1566
     33 F         139.0331  145.8929  162.1343 F       1  UNL1       -0.2028
     34 C         140.3170  144.5107  163.9206 C.ar    1  UNL1        0.0261
     35 C         141.5175  143.7079  164.3259 C.ar    1  UNL1        0.1002
     36 N         141.6009  143.1285  165.7069 N.ar    1  UNL1       -0.2104
     37 O         142.8847  141.7463  167.4934 O.3     1  UNL1       -0.4584
     38 C         142.0786  142.3448  168.6077 C.3     1  UNL1        0.2283
     39 N         140.4623  142.0942  171.8386 N.3     1  UNL1       -0.3136
     40 C         140.2099  141.5140  170.4786 C.3     1  UNL1        0.1501
     41 C         139.1836  140.5898  169.8935 C.2     1  UNL1        0.2384
     42 O         137.9845  139.8629  170.4261 O.2     1  UNL1       -0.2736
     43 N         139.8531  140.6937  168.5552 N.am    1  UNL1       -0.2998
     44 C         140.8794  141.6178  169.1403 C.3     1  UNL1        0.1386
     45 H         139.7508  141.7596  172.4883 H       1  UNL1        0.1193
     46 H         140.4236  143.1121  171.7866 H       1  UNL1        0.1193
     47 H         139.6875  140.3129  167.6625 H       1  UNL1        0.1496
@<TRIPOS>BOND
     1    40    39    1
     2    40    41    1
     3    41    42    2
     4    41    43   am
     5    43    44    1
     6    44    38    1
     7    38    37    1
     8    37    26    1
     9    26    27   ar
    10    27    28   ar
    11    28    29   ar
    12    29    30   ar
    13    30    31   ar
    14    31    32   ar
    15    32    33    1
    16    32    34   ar
    17    34    25    1
    18    25     1    1
    19     1     2    1
    20     2     3    1
    21     3     4    1
    22     4     5    1
    23     5    10    1
    24    10    12    1
    25    12    13    1
    26    13    14   ar
    27    14    15   ar
    28    15    16   ar
    29    16    17   ar
    30    17    18   ar
    31    17    19    1
    32    19    20   am
    33    20    21    2
    34    20    22    1
    35    22    23    1
    36     5     6    1
    37     6     7    1
    38     5     8    1
    39     8     9    1
    40    34    35   ar
    41    35    36   ar
    42    44    40    1
    43    36    26   ar
    44    35    29   ar
    45     7     2    1
    46     9     2    1
    47    18    13   ar
    48    23    16    1
    49    39    45    1
    50    39    46    1
    51    43    47    1
    52    10    11    1
    53    19    24    1
@<TRIPOS>MOLECULE
*****
 47 53 0 0 0
SMALL
GASTEIGER

@<TRIPOS>ATOM
      1 C         145.6078  141.8851  163.4495 C.3     1  UNL1        0.0320
      2 C         144.8783  140.9415  162.5397 C.3     1  UNL1        0.0932
      3 C         144.5582  139.5509  163.0021 C.3     1  UNL1        0.0286
      4 C         143.8287  138.6073  162.0923 C.3     1  UNL1        0.0193
      5 C         143.4194  139.0544  160.7203 C.3     1  UNL1        0.0700
      6 C         143.7395  140.4450  160.2579 C.3     1  UNL1        0.0193
      7 C         144.4689  141.3885  161.1677 C.3     1  UNL1        0.0286
      8 C         143.8173  139.6071  161.1831 C.3     1  UNL1        0.1562
      9 O         144.4769  140.4602  162.0057 O.3     1  UNL1       -0.3572
     10 N         142.6899  138.1108  159.8105 N.3     1  UNL1       -0.2926
     11 H         142.6839  137.2017  160.2729 H       1  UNL1        0.1236
     12 C         141.2746  138.4013  159.4077 C.3     1  UNL1        0.1152
     13 C         140.3160  138.9845  160.4033 C.ar    1  UNL1        0.0765
     14 C         139.5809  138.0852  161.3523 C.ar    1  UNL1        0.0193
     15 C         138.6224  138.6685  162.3478 C.ar    1  UNL1        0.0411
     16 C         138.3990  140.1511  162.3942 C.ar    1  UNL1        0.1708
     17 C         139.1342  141.0503  161.4452 C.ar    1  UNL1        0.1682
     18 N         140.0927  140.4671  160.4497 N.ar    1  UNL1       -0.2304
     19 N         138.9108  142.5329  161.4916 N.am    1  UNL1       -0.2639
     20 C         137.9524  143.1162  162.4871 C.2     1  UNL1        0.2718
     21 O         137.7290  144.5987  162.5335 O.2     1  UNL1       -0.2707
     22 C         137.2171  142.2169  163.4362 C.3     1  UNL1        0.2898
     23 O         137.4405  140.7343  163.3898 O.3     1  UNL1       -0.4628
     24 H         139.3934  143.1231  160.8686 H       1  UNL1        0.1565
     25 C         144.8984  142.4958  164.6216 C.3     1  UNL1        0.0327
     26 C         141.3251  141.1465  167.0010 C.ar    1  UNL1        0.2250
     27 C         139.9981  141.8184  166.8075 C.ar    1  UNL1        0.0593
     28 C         139.8621  142.9400  165.8209 C.ar    1  UNL1        0.0254
     29 C         141.0532  143.3898  165.0277 C.ar    1  UNL1        0.0990
     30 N         140.9171  144.5114  164.0411 N.ar    1  UNL1       -0.2400
     31 C         142.1082  144.9612  163.2480 C.ar    1  UNL1        0.1281
     32 C         143.4353  144.2892  163.4415 C.ar    1  UNL1        0.1566
     33 F         144.6264  144.7390  162.6483 F       1  UNL1       -0.2028
     34 C         143.5713  143.1676  164.4281 C.ar    1  UNL1        0.0261
     35 C         142.3802  142.7179  165.2212 C.ar    1  UNL1        0.1002
     36 N         142.5162  141.5963  166.2078 N.ar    1  UNL1       -0.2104
     37 O         141.4612  140.0248  167.9876 O.3     1  UNL1       -0.4584
     38 C         142.5473  140.0629  169.0214 C.3     1  UNL1        0.2283
     39 N         140.6463  142.5196  170.8826 N.3     1  UNL1       -0.3136
     40 C         142.0861  142.3674  170.4905 C.3     1  UNL1        0.1501
     41 C         143.3348  143.1698  170.7069 C.2     1  UNL1        0.2384
     42 O         143.6609  144.4567  171.4051 O.2     1  UNL1       -0.2736
     43 N         144.1222  142.1522  169.9359 N.am    1  UNL1       -0.2998
     44 C         142.8736  141.3499  169.7195 C.3     1  UNL1        0.1386
     45 H         140.5290  143.3792  171.4191 H       1  UNL1        0.1193
     46 H         140.3628  141.7221  171.4519 H       1  UNL1        0.1193
     47 H         145.0672  142.0523  169.6786 H       1  UNL1        0.1496
@<TRIPOS>BOND
     1    40    39    1
     2    40    41    1
     3    41    42    2
     4    41    43   am
     5    43    44    1
     6    44    38    1
     7    38    37    1
     8    37    26    1
     9    26    27   ar
    10    27    28   ar
    11    28    29   ar
    12    29    30   ar
    13    30    31   ar
    14    31    32   ar
    15    32    33    1
    16    32    34   ar
    17    34    25    1
    18    25     1    1
    19     1     2    1
    20     2     3    1
    21     3     4    1
    22     4     5    1
    23     5    10    1
    24    10    12    1
    25    12    13    1
    26    13    14   ar
    27    14    15   ar
    28    15    16   ar
    29    16    17   ar
    30    17    18   ar
    31    17    19    1
    32    19    20   am
    33    20    21    2
    34    20    22    1
    35    22    23    1
    36     5     6    1
    37     6     7    1
    38     5     8    1
    39     8     9    1
    40    34    35   ar
    41    35    36   ar
    42    44    40    1
    43    36    26   ar
    44    35    29   ar
    45     7     2    1
    46     9     2    1
    47    18    13   ar
    48    23    16    1
    49    39    45    1
    50    39    46    1
    51    43    47    1
    52    10    11    1
    53    19    24    1
