@<TRIPOS>MOLECULE
*****
 35 38 0 0 0
SMALL
GASTEIGER

@<TRIPOS>ATOM
      1 C         138.0099  139.8032  163.6544 C.3     1  UNL1        0.0722
      2 C         139.9880  140.2942  169.2977 C.2     1  UNL1        0.2490
      3 O         139.3552  139.4808  170.3877 O.2     1  UNL1       -0.2699
      4 N         139.4935  140.1714  167.8869 N.am    1  UNL1       -0.2761
      5 C         138.3662  139.2353  167.5660 C.3     1  UNL1        0.0938
      6 C         137.8716  139.1126  166.1552 C.3     1  UNL1        0.0230
      7 C         138.5045  139.9260  165.0652 C.3     1  UNL1        0.0194
      8 C         139.6317  140.8620  165.3861 C.3     1  UNL1        0.0230
      9 C         140.1263  140.9848  166.7969 C.3     1  UNL1        0.0938
     10 C         142.5335  140.7456  169.5560 C.ar    1  UNL1        0.0184
     11 C         143.6608  141.6818  169.8769 C.ar    1  UNL1        0.0013
     12 C         143.3699  143.1024  170.2602 C.ar    1  UNL1        0.0000
     13 C         141.9517  143.5871  170.3227 C.ar    1  UNL1        0.0001
     14 C         140.8245  142.6510  170.0019 C.ar    1  UNL1        0.0046
     15 C         141.1153  141.2302  169.6185 C.ar    1  UNL1        0.0547
     16 O         142.9875  138.9563  167.7278 O.co2   1  UNL1       -0.5446
     17 C         142.8244  139.3249  169.1727 C.2     1  UNL1        0.0730
     18 O         142.9523  138.2728  170.2342 O.co2   1  UNL1       -0.5446
     19 N         138.9889  139.6806  162.5245 N.3     1  UNL1       -0.2724
     20 C         139.7577  138.4070  162.3331 C.3     1  UNL1        0.0758
     21 C         140.7366  138.2844  161.2033 C.3     1  UNL1        0.0609
     22 C         140.9468  139.4356  160.2648 C.3     1  UNL1        0.1687
     23 C         140.1780  140.7093  160.4562 C.3     1  UNL1        0.0609
     24 C         139.1991  140.8318  161.5861 C.3     1  UNL1        0.0758
     25 O         141.9258  139.3130  159.1349 O.3     1  UNL1       -0.4790
     26 C         141.7534  138.2343  158.1069 C.ar    1  UNL1        0.1392
     27 C         142.8683  137.2667  157.8409 C.ar    1  UNL1        0.0367
     28 C         142.6959  136.1880  156.8129 C.ar    1  UNL1        0.0021
     29 C         141.4087  136.0770  156.0509 C.ar    1  UNL1        0.0177
     30 C         140.2938  137.0446  156.3169 C.ar    1  UNL1        0.0590
     31 CL        139.0066  136.9336  155.5549 Cl      1  UNL1       -0.0824
     32 C         140.4661  138.1232  157.3449 C.ar    1  UNL1        0.0480
     33 C         141.2364  134.9984  155.0229 C.3     1  UNL1        0.1644
     34 O         140.9341  133.5936  155.4532 O.3     1  UNL1       -0.3772
     35 H         141.6923  133.2343  155.9400 H       1  UNL1        0.2109
@<TRIPOS>UNITY_ATOM_ATTR
16 1
charge -1
@<TRIPOS>BOND
     1    16    17   ar
     2    17    18   ar
     3    17    10    1
     4    10    11   ar
     5    11    12   ar
     6    12    13   ar
     7    13    14   ar
     8    14    15   ar
     9    15     2    1
    10     2     3    2
    11     2     4   am
    12     4     5    1
    13     5     6    1
    14     6     7    1
    15     7     1    1
    16     1    19    1
    17    19    20    1
    18    20    21    1
    19    21    22    1
    20    22    25    1
    21    25    26    1
    22    26    27   ar
    23    27    28   ar
    24    28    29   ar
    25    29    33    1
    26    33    34    1
    27    29    30   ar
    28    30    31    1
    29    30    32   ar
    30    22    23    1
    31    23    24    1
    32     7     8    1
    33     8     9    1
    34    15    10   ar
    35     9     4    1
    36    24    19    1
    37    32    26   ar
    38    34    35    1
@<TRIPOS>MOLECULE
*****
 35 38 0 0 0
SMALL
GASTEIGER

@<TRIPOS>ATOM
      1 C         138.6643  137.6089  162.6035 C.3     1  UNL1        0.0722
      2 C         141.8011  139.5988  167.3152 C.2     1  UNL1        0.2490
      3 O         143.1903  139.0888  167.5609 O.2     1  UNL1       -0.2699
      4 N         141.0169  139.1013  166.1373 N.am    1  UNL1       -0.2761
      5 C         141.6219  138.0938  165.2050 C.3     1  UNL1        0.0938
      6 C         140.8377  137.5964  164.0270 C.3     1  UNL1        0.0230
      7 C         139.4485  138.1064  163.7814 C.3     1  UNL1        0.0194
      8 C         138.8437  139.1138  164.7137 C.3     1  UNL1        0.0230
      9 C         139.6279  139.6113  165.8916 C.3     1  UNL1        0.0938
     10 C         141.3437  142.0721  167.9658 C.ar    1  UNL1        0.0184
     11 C         140.7387  143.0796  168.8982 C.ar    1  UNL1        0.0013
     12 C         139.9865  142.6211  170.1122 C.ar    1  UNL1        0.0000
     13 C         139.8391  141.1551  170.3939 C.ar    1  UNL1        0.0001
     14 C         140.4440  140.1477  169.4616 C.ar    1  UNL1        0.0046
     15 C         141.1963  140.6062  168.2475 C.ar    1  UNL1        0.0547
     16 O         141.3509  142.9043  165.5046 O.co2   1  UNL1       -0.5446
     17 C         142.0959  142.5306  166.7518 C.2     1  UNL1        0.0730
     18 O         143.5931  142.6154  166.7848 O.co2   1  UNL1       -0.5446
     19 N         138.6263  138.4096  161.3356 N.3     1  UNL1       -0.2724
     20 C         139.7305  138.2740  160.3295 C.3     1  UNL1        0.0758
     21 C         139.6924  139.0748  159.0617 C.3     1  UNL1        0.0609
     22 C         138.5501  140.0111  158.8000 C.3     1  UNL1        0.1687
     23 C         137.4459  140.1467  159.8061 C.3     1  UNL1        0.0609
     24 C         137.4840  139.3459  161.0739 C.3     1  UNL1        0.0758
     25 O         138.5120  140.8118  157.5321 O.3     1  UNL1       -0.4790
     26 C         139.1841  142.1514  157.4706 C.ar    1  UNL1        0.1392
     27 C         139.6889  142.6778  156.1598 C.ar    1  UNL1        0.0367
     28 C         140.3610  144.0174  156.0984 C.ar    1  UNL1        0.0021
     29 C         140.5283  144.8305  157.3476 C.ar    1  UNL1        0.0177
     30 C         140.0236  144.3041  158.6584 C.ar    1  UNL1        0.0590
     31 CL        140.1910  145.1173  159.9077 Cl      1  UNL1       -0.0824
     32 C         139.3515  142.9646  158.7199 C.ar    1  UNL1        0.0480
     33 C         141.2004  146.1701  157.2861 C.3     1  UNL1        0.1644
     34 O         142.6331  146.3105  157.7077 O.3     1  UNL1       -0.3772
     35 H         142.7091  146.1343  158.6586 H       1  UNL1        0.2109
@<TRIPOS>UNITY_ATOM_ATTR
16 1
charge -1
@<TRIPOS>BOND
     1    16    17   ar
     2    17    18   ar
     3    17    10    1
     4    10    11   ar
     5    11    12   ar
     6    12    13   ar
     7    13    14   ar
     8    14    15   ar
     9    15     2    1
    10     2     3    2
    11     2     4   am
    12     4     5    1
    13     5     6    1
    14     6     7    1
    15     7     1    1
    16     1    19    1
    17    19    20    1
    18    20    21    1
    19    21    22    1
    20    22    25    1
    21    25    26    1
    22    26    27   ar
    23    27    28   ar
    24    28    29   ar
    25    29    33    1
    26    33    34    1
    27    29    30   ar
    28    30    31    1
    29    30    32   ar
    30    22    23    1
    31    23    24    1
    32     7     8    1
    33     8     9    1
    34    15    10   ar
    35     9     4    1
    36    24    19    1
    37    32    26   ar
    38    34    35    1
@<TRIPOS>MOLECULE
*****
 35 38 0 0 0
SMALL
GASTEIGER

@<TRIPOS>ATOM
      1 C         137.8920  143.3912  162.4488 C.3     1  UNL1        0.0722
      2 C         139.9179  140.7945  167.4641 C.2     1  UNL1        0.2490
      3 O         139.4601  139.4141  167.8316 O.2     1  UNL1       -0.2699
      4 N         139.4114  141.4436  166.2103 N.am    1  UNL1       -0.2761
      5 C         138.4471  140.7124  165.3240 C.3     1  UNL1        0.0938
      6 C         137.9407  141.3616  164.0701 C.3     1  UNL1        0.0230
      7 C         138.3985  142.7420  163.7027 C.3     1  UNL1        0.0194
      8 C         139.3627  143.4731  164.5890 C.3     1  UNL1        0.0230
      9 C         139.8692  142.8240  165.8428 C.3     1  UNL1        0.0938
     10 C         142.3425  141.1854  168.3116 C.ar    1  UNL1        0.0184
     11 C         143.3068  141.9166  169.1980 C.ar    1  UNL1        0.0013
     12 C         142.8106  142.9880  170.1232 C.ar    1  UNL1        0.0000
     13 C         141.3502  143.3282  170.1620 C.ar    1  UNL1        0.0001
     14 C         140.3860  142.5970  169.2757 C.ar    1  UNL1        0.0046
     15 C         140.8821  141.5256  168.3504 C.ar    1  UNL1        0.0547
     16 O         143.1645  138.7516  167.9228 O.co2   1  UNL1       -0.5446
     17 C         142.8387  140.1141  167.3864 C.2     1  UNL1        0.0730
     18 O         143.0091  140.4051  165.9248 O.co2   1  UNL1       -0.5446
     19 N         138.8511  143.7648  161.3576 N.3     1  UNL1       -0.2724
     20 C         139.0204  142.8670  160.1680 C.3     1  UNL1        0.0758
     21 C         139.9794  143.2407  159.0769 C.3     1  UNL1        0.0609
     22 C         140.7691  144.5122  159.1754 C.3     1  UNL1        0.1687
     23 C         140.5998  145.4100  160.3650 C.3     1  UNL1        0.0609
     24 C         139.6407  145.0363  161.4561 C.3     1  UNL1        0.0758
     25 O         141.7282  144.8859  158.0842 O.3     1  UNL1       -0.4790
     26 C         142.7648  143.9026  157.6276 C.ar    1  UNL1        0.1392
     27 C         143.6853  143.2653  158.6259 C.ar    1  UNL1        0.0367
     28 C         144.7220  142.2820  158.1693 C.ar    1  UNL1        0.0021
     29 C         144.8381  141.9360  156.7144 C.ar    1  UNL1        0.0177
     30 C         143.9177  142.5733  155.7161 C.ar    1  UNL1        0.0590
     31 CL        144.0338  142.2273  154.2612 Cl      1  UNL1       -0.0824
     32 C         142.8810  143.5566  156.1727 C.ar    1  UNL1        0.0480
     33 C         145.8748  140.9528  156.2578 C.3     1  UNL1        0.1644
     34 O         145.5469  139.4902  156.1988 O.3     1  UNL1       -0.3772
     35 H         145.3916  139.1573  157.0966 H       1  UNL1        0.2109
@<TRIPOS>UNITY_ATOM_ATTR
16 1
charge -1
@<TRIPOS>BOND
     1    16    17   ar
     2    17    18   ar
     3    17    10    1
     4    10    11   ar
     5    11    12   ar
     6    12    13   ar
     7    13    14   ar
     8    14    15   ar
     9    15     2    1
    10     2     3    2
    11     2     4   am
    12     4     5    1
    13     5     6    1
    14     6     7    1
    15     7     1    1
    16     1    19    1
    17    19    20    1
    18    20    21    1
    19    21    22    1
    20    22    25    1
    21    25    26    1
    22    26    27   ar
    23    27    28   ar
    24    28    29   ar
    25    29    33    1
    26    33    34    1
    27    29    30   ar
    28    30    31    1
    29    30    32   ar
    30    22    23    1
    31    23    24    1
    32     7     8    1
    33     8     9    1
    34    15    10   ar
    35     9     4    1
    36    24    19    1
    37    32    26   ar
    38    34    35    1
@<TRIPOS>MOLECULE
*****
 35 38 0 0 0
SMALL
GASTEIGER

@<TRIPOS>ATOM
      1 C         139.4922  139.8626  158.8120 C.3     1  UNL1        0.0722
      2 C         143.3693  136.5321  155.6695 C.2     1  UNL1        0.2490
      3 O         144.8225  136.9028  155.6375 O.2     1  UNL1       -0.2699
      4 N         142.4001  137.3647  156.4551 N.am    1  UNL1       -0.2761
      5 C         142.8839  138.5681  157.2088 C.3     1  UNL1        0.0938
      6 C         141.9146  139.4007  157.9944 C.3     1  UNL1        0.0230
      7 C         140.4615  139.0300  158.0264 C.3     1  UNL1        0.0194
      8 C         139.9777  137.8267  157.2728 C.3     1  UNL1        0.0230
      9 C         140.9470  136.9941  156.4872 C.3     1  UNL1        0.0938
     10 C         143.0768  133.9567  155.4911 C.ar    1  UNL1        0.0184
     11 C         142.5929  132.7534  154.7374 C.ar    1  UNL1        0.0013
     12 C         141.9179  132.9222  153.4086 C.ar    1  UNL1        0.0000
     13 C         141.7266  134.2942  152.8334 C.ar    1  UNL1        0.0001
     14 C         142.2104  135.4975  153.5870 C.ar    1  UNL1        0.0046
     15 C         142.8855  135.3288  154.9159 C.ar    1  UNL1        0.0547
     16 O         143.3047  134.6029  157.9973 O.co2   1  UNL1       -0.5446
     17 C         143.7519  133.7880  156.8199 C.2     1  UNL1        0.0730
     18 O         144.8741  132.8043  156.9715 O.co2   1  UNL1       -0.5446
     19 N         139.2522  139.5656  160.2626 N.3     1  UNL1       -0.2724
     20 C         139.3563  138.1568  160.7670 C.3     1  UNL1        0.0758
     21 C         139.1163  137.8599  162.2176 C.3     1  UNL1        0.0609
     22 C         138.7722  138.9718  163.1638 C.3     1  UNL1        0.1687
     23 C         138.6681  140.3806  162.6594 C.3     1  UNL1        0.0609
     24 C         138.9081  140.6775  161.2089 C.3     1  UNL1        0.0758
     25 O         138.5322  138.6748  164.6144 O.3     1  UNL1       -0.4790
     26 C         139.5589  139.0585  165.6384 C.ar    1  UNL1        0.1392
     27 C         139.1436  139.7941  166.8779 C.ar    1  UNL1        0.0367
     28 C         140.1704  140.1778  167.9019 C.ar    1  UNL1        0.0021
     29 C         141.6125  139.8259  167.6863 C.ar    1  UNL1        0.0177
     30 C         142.0278  139.0903  166.4468 C.ar    1  UNL1        0.0590
     31 CL        143.4699  138.7385  166.2313 Cl      1  UNL1       -0.0824
     32 C         141.0011  138.7066  165.4229 C.ar    1  UNL1        0.0480
     33 C         142.6392  140.2096  168.7103 C.3     1  UNL1        0.1644
     34 O         143.0968  139.2055  169.7264 O.3     1  UNL1       -0.3772
     35 H         142.3583  138.9802  170.3136 H       1  UNL1        0.2109
@<TRIPOS>UNITY_ATOM_ATTR
16 1
charge -1
@<TRIPOS>BOND
     1    16    17   ar
     2    17    18   ar
     3    17    10    1
     4    10    11   ar
     5    11    12   ar
     6    12    13   ar
     7    13    14   ar
     8    14    15   ar
     9    15     2    1
    10     2     3    2
    11     2     4   am
    12     4     5    1
    13     5     6    1
    14     6     7    1
    15     7     1    1
    16     1    19    1
    17    19    20    1
    18    20    21    1
    19    21    22    1
    20    22    25    1
    21    25    26    1
    22    26    27   ar
    23    27    28   ar
    24    28    29   ar
    25    29    33    1
    26    33    34    1
    27    29    30   ar
    28    30    31    1
    29    30    32   ar
    30    22    23    1
    31    23    24    1
    32     7     8    1
    33     8     9    1
    34    15    10   ar
    35     9     4    1
    36    24    19    1
    37    32    26   ar
    38    34    35    1
@<TRIPOS>MOLECULE
*****
 35 38 0 0 0
SMALL
GASTEIGER

@<TRIPOS>ATOM
      1 C         139.6100  139.3685  158.7709 C.3     1  UNL1        0.0722
      2 C         139.9745  138.9998  164.7485 C.2     1  UNL1        0.2490
      3 O         139.4309  137.7964  165.4602 O.2     1  UNL1       -0.2699
      4 N         139.8834  139.0919  163.2541 N.am    1  UNL1       -0.2761
      5 C         139.2487  137.9807  162.4714 C.3     1  UNL1        0.0938
      6 C         139.1575  138.0729  160.9770 C.3     1  UNL1        0.0230
      7 C         139.7011  139.2763  160.2653 C.3     1  UNL1        0.0194
      8 C         140.3358  140.3874  161.0479 C.3     1  UNL1        0.0230
      9 C         140.4269  140.2952  162.5423 C.3     1  UNL1        0.0938
     10 C         142.0857  140.0944  165.7946 C.ar    1  UNL1        0.0184
     11 C         142.7204  141.2056  166.5773 C.ar    1  UNL1        0.0013
     12 C         141.8785  142.3332  167.0965 C.ar    1  UNL1        0.0000
     13 C         140.4019  142.3497  166.8330 C.ar    1  UNL1        0.0001
     14 C         139.7672  141.2386  166.0503 C.ar    1  UNL1        0.0046
     15 C         140.6092  140.1109  165.5311 C.ar    1  UNL1        0.0547
     16 O         143.3657  137.8702  166.2005 O.co2   1  UNL1       -0.5446
     17 C         142.9277  138.9668  165.2754 C.2     1  UNL1        0.0730
     18 O         143.3316  138.9356  163.8311 O.co2   1  UNL1       -0.5446
     19 N         140.3564  138.3908  157.9123 N.3     1  UNL1       -0.2724
     20 C         139.6622  137.7167  156.7662 C.3     1  UNL1        0.0758
     21 C         140.4086  136.7391  155.9076 C.3     1  UNL1        0.0609
     22 C         141.8491  136.4356  156.1952 C.3     1  UNL1        0.1687
     23 C         142.5433  137.1097  157.3413 C.3     1  UNL1        0.0609
     24 C         141.7969  138.0873  158.1998 C.3     1  UNL1        0.0758
     25 O         142.5955  135.4580  155.3365 O.3     1  UNL1       -0.4790
     26 C         142.8851  134.0783  155.8489 C.ar    1  UNL1        0.1392
     27 C         141.9783  132.9389  155.4893 C.ar    1  UNL1        0.0367
     28 C         142.2680  131.5592  156.0018 C.ar    1  UNL1        0.0021
     29 C         143.4645  131.3189  156.8738 C.ar    1  UNL1        0.0177
     30 C         144.3714  132.4583  157.2335 C.ar    1  UNL1        0.0590
     31 CL        145.5679  132.2181  158.1056 Cl      1  UNL1       -0.0824
     32 C         144.0817  133.8380  156.7211 C.ar    1  UNL1        0.0480
     33 C         143.7541  129.9393  157.3863 C.3     1  UNL1        0.1644
     34 O         143.3405  129.5530  158.7754 O.3     1  UNL1       -0.3772
     35 H         143.8444  130.0745  159.4196 H       1  UNL1        0.2109
@<TRIPOS>UNITY_ATOM_ATTR
16 1
charge -1
@<TRIPOS>BOND
     1    16    17   ar
     2    17    18   ar
     3    17    10    1
     4    10    11   ar
     5    11    12   ar
     6    12    13   ar
     7    13    14   ar
     8    14    15   ar
     9    15     2    1
    10     2     3    2
    11     2     4   am
    12     4     5    1
    13     5     6    1
    14     6     7    1
    15     7     1    1
    16     1    19    1
    17    19    20    1
    18    20    21    1
    19    21    22    1
    20    22    25    1
    21    25    26    1
    22    26    27   ar
    23    27    28   ar
    24    28    29   ar
    25    29    33    1
    26    33    34    1
    27    29    30   ar
    28    30    31    1
    29    30    32   ar
    30    22    23    1
    31    23    24    1
    32     7     8    1
    33     8     9    1
    34    15    10   ar
    35     9     4    1
    36    24    19    1
    37    32    26   ar
    38    34    35    1
@<TRIPOS>MOLECULE
*****
 35 38 0 0 0
SMALL
GASTEIGER

@<TRIPOS>ATOM
      1 C         138.2352  143.0630  162.0601 C.3     1  UNL1        0.0722
      2 C         141.9423  142.3456  166.7230 C.2     1  UNL1        0.2490
      3 O         143.4046  142.6435  166.5713 O.2     1  UNL1       -0.2699
      4 N         141.0155  142.5250  165.5573 N.am    1  UNL1       -0.2761
      5 C         141.5511  143.0021  164.2399 C.3     1  UNL1        0.0938
      6 C         140.6243  143.1815  163.0741 C.3     1  UNL1        0.0230
      7 C         139.1620  142.8836  163.2258 C.3     1  UNL1        0.0194
      8 C         138.6265  142.4065  164.5432 C.3     1  UNL1        0.0230
      9 C         139.5532  142.2272  165.7089 C.3     1  UNL1        0.0938
     10 C         141.4445  140.4081  168.3808 C.ar    1  UNL1        0.0184
     11 C         140.9090  139.9310  169.6982 C.ar    1  UNL1        0.0013
     12 C         140.3358  140.9142  170.6753 C.ar    1  UNL1        0.0000
     13 C         140.2981  142.3746  170.3349 C.ar    1  UNL1        0.0001
     14 C         140.8336  142.8518  169.0175 C.ar    1  UNL1        0.0046
     15 C         141.4068  141.8685  168.0404 C.ar    1  UNL1        0.0547
     16 O         143.3239  138.7489  167.6988 O.co2   1  UNL1       -0.5446
     17 C         142.0177  139.4249  167.4037 C.2     1  UNL1        0.0730
     18 O         141.2847  139.1175  166.1316 O.co2   1  UNL1       -0.5446
     19 N         138.3304  142.1445  160.8780 N.3     1  UNL1       -0.2724
     20 C         138.8413  142.6613  159.5658 C.3     1  UNL1        0.0758
     21 C         138.9366  141.7428  158.3838 C.3     1  UNL1        0.0609
     22 C         138.5209  140.3074  158.5140 C.3     1  UNL1        0.1687
     23 C         138.0100  139.7906  159.8261 C.3     1  UNL1        0.0609
     24 C         137.9148  140.7091  161.0081 C.3     1  UNL1        0.0758
     25 O         138.6162  139.3889  157.3319 O.3     1  UNL1       -0.4790
     26 C         139.8007  138.4810  157.1810 C.ar    1  UNL1        0.1392
     27 C         141.0150  138.6839  158.0378 C.ar    1  UNL1        0.0367
     28 C         142.1995  137.7759  157.8870 C.ar    1  UNL1        0.0021
     29 C         142.1696  136.6652  156.8793 C.ar    1  UNL1        0.0177
     30 C         140.9552  136.4624  156.0225 C.ar    1  UNL1        0.0590
     31 CL        140.9253  135.3517  155.0149 Cl      1  UNL1       -0.0824
     32 C         139.7708  137.3702  156.1734 C.ar    1  UNL1        0.0480
     33 C         143.3541  135.7574  156.7285 C.3     1  UNL1        0.1644
     34 O         144.3771  136.0295  155.6658 O.3     1  UNL1       -0.3772
     35 H         143.9730  135.9157  154.7913 H       1  UNL1        0.2109
@<TRIPOS>UNITY_ATOM_ATTR
16 1
charge -1
@<TRIPOS>BOND
     1    16    17   ar
     2    17    18   ar
     3    17    10    1
     4    10    11   ar
     5    11    12   ar
     6    12    13   ar
     7    13    14   ar
     8    14    15   ar
     9    15     2    1
    10     2     3    2
    11     2     4   am
    12     4     5    1
    13     5     6    1
    14     6     7    1
    15     7     1    1
    16     1    19    1
    17    19    20    1
    18    20    21    1
    19    21    22    1
    20    22    25    1
    21    25    26    1
    22    26    27   ar
    23    27    28   ar
    24    28    29   ar
    25    29    33    1
    26    33    34    1
    27    29    30   ar
    28    30    31    1
    29    30    32   ar
    30    22    23    1
    31    23    24    1
    32     7     8    1
    33     8     9    1
    34    15    10   ar
    35     9     4    1
    36    24    19    1
    37    32    26   ar
    38    34    35    1
@<TRIPOS>MOLECULE
*****
 35 38 0 0 0
SMALL
GASTEIGER

@<TRIPOS>ATOM
      1 C         143.2237  143.9915  161.4518 C.3     1  UNL1        0.0722
      2 C         142.1998  139.5006  165.2967 C.2     1  UNL1        0.2490
      3 O         143.3302  138.6190  165.7384 O.2     1  UNL1       -0.2699
      4 N         142.4557  140.6233  164.3355 N.am    1  UNL1       -0.2761
      5 C         143.8421  140.8645  163.8160 C.3     1  UNL1        0.0938
      6 C         144.0981  141.9872  162.8548 C.3     1  UNL1        0.0230
      7 C         142.9677  142.8688  162.4131 C.3     1  UNL1        0.0194
      8 C         141.5814  142.6276  162.9326 C.3     1  UNL1        0.0230
      9 C         141.3254  141.5049  163.8938 C.3     1  UNL1        0.0938
     10 C         139.8541  138.4157  165.0301 C.ar    1  UNL1        0.0184
     11 C         138.4677  138.1746  165.5497 C.ar    1  UNL1        0.0013
     12 C         138.0408  138.7770  166.8553 C.ar    1  UNL1        0.0000
     13 C         139.0001  139.6207  167.6414 C.ar    1  UNL1        0.0001
     14 C         140.3864  139.8619  167.1219 C.ar    1  UNL1        0.0046
     15 C         140.8134  139.2594  165.8162 C.ar    1  UNL1        0.0547
     16 O         141.1465  136.5881  163.7112 O.co2   1  UNL1       -0.5446
     17 C         140.2811  137.8133  163.7245 C.2     1  UNL1        0.0730
     18 O         139.8427  138.4359  162.4321 O.co2   1  UNL1       -0.5446
     19 N         142.3135  144.1952  160.2769 N.3     1  UNL1       -0.2724
     20 C         142.5907  143.4899  158.9825 C.3     1  UNL1        0.0758
     21 C         141.6806  143.6935  157.8077 C.3     1  UNL1        0.0609
     22 C         140.4934  144.6025  157.9273 C.3     1  UNL1        0.1687
     23 C         140.2163  145.3078  159.2218 C.3     1  UNL1        0.0609
     24 C         141.1263  145.1041  160.3966 C.3     1  UNL1        0.0758
     25 O         139.5833  144.8061  156.7524 O.3     1  UNL1       -0.4790
     26 C         139.7019  146.0469  155.9180 C.ar    1  UNL1        0.1392
     27 C         140.5402  146.0371  154.6742 C.ar    1  UNL1        0.0367
     28 C         140.6588  147.2780  153.8398 C.ar    1  UNL1        0.0021
     29 C         139.9391  148.5287  154.2493 C.ar    1  UNL1        0.0177
     30 C         139.1008  148.5386  155.4931 C.ar    1  UNL1        0.0590
     31 CL        138.3811  149.7893  155.9025 Cl      1  UNL1       -0.0824
     32 C         138.9822  147.2977  156.3275 C.ar    1  UNL1        0.0480
     33 C         140.0577  149.7695  153.4149 C.3     1  UNL1        0.1644
     34 O         141.3833  150.4583  153.2794 O.3     1  UNL1       -0.3772
     35 H         141.6516  150.8155  154.1404 H       1  UNL1        0.2109
@<TRIPOS>UNITY_ATOM_ATTR
16 1
charge -1
@<TRIPOS>BOND
     1    16    17   ar
     2    17    18   ar
     3    17    10    1
     4    10    11   ar
     5    11    12   ar
     6    12    13   ar
     7    13    14   ar
     8    14    15   ar
     9    15     2    1
    10     2     3    2
    11     2     4   am
    12     4     5    1
    13     5     6    1
    14     6     7    1
    15     7     1    1
    16     1    19    1
    17    19    20    1
    18    20    21    1
    19    21    22    1
    20    22    25    1
    21    25    26    1
    22    26    27   ar
    23    27    28   ar
    24    28    29   ar
    25    29    33    1
    26    33    34    1
    27    29    30   ar
    28    30    31    1
    29    30    32   ar
    30    22    23    1
    31    23    24    1
    32     7     8    1
    33     8     9    1
    34    15    10   ar
    35     9     4    1
    36    24    19    1
    37    32    26   ar
    38    34    35    1
@<TRIPOS>MOLECULE
*****
 35 38 0 0 0
SMALL
GASTEIGER

@<TRIPOS>ATOM
      1 C         138.2708  139.2933  163.6568 C.3     1  UNL1        0.0722
      2 C         139.8249  140.3293  169.3587 C.2     1  UNL1        0.2490
      3 O         139.0760  139.6610  170.4735 O.2     1  UNL1       -0.2699
      4 N         139.4364  140.0703  167.9333 N.am    1  UNL1       -0.2761
      5 C         138.2989  139.1430  167.6225 C.3     1  UNL1        0.0938
      6 C         137.9104  138.8840  166.1971 C.3     1  UNL1        0.0230
      7 C         138.6593  139.5523  165.0823 C.3     1  UNL1        0.0194
      8 C         139.7966  140.4795  165.3931 C.3     1  UNL1        0.0230
      9 C         140.1852  140.7385  166.8185 C.3     1  UNL1        0.0938
     10 C         142.3738  140.7503  169.6338 C.ar    1  UNL1        0.0184
     11 C         143.5112  141.6776  169.9446 C.ar    1  UNL1        0.0013
     12 C         143.2370  143.1111  170.2910 C.ar    1  UNL1        0.0000
     13 C         141.8254  143.6173  170.3266 C.ar    1  UNL1        0.0001
     14 C         140.6881  142.6900  170.0159 C.ar    1  UNL1        0.0046
     15 C         140.9622  141.2565  169.6695 C.ar    1  UNL1        0.0547
     16 O         143.0491  138.9463  167.8903 O.co2   1  UNL1       -0.5446
     17 C         142.6480  139.3169  169.2875 C.2     1  UNL1        0.0730
     18 O         142.5212  138.2539  170.3382 O.co2   1  UNL1       -0.5446
     19 N         138.7742  140.1927  162.5670 N.3     1  UNL1       -0.2724
     20 C         138.1059  141.5115  162.3144 C.3     1  UNL1        0.0758
     21 C         138.6093  142.4109  161.2246 C.3     1  UNL1        0.0609
     22 C         139.7811  141.9913  160.3874 C.3     1  UNL1        0.1687
     23 C         140.4495  140.6725  160.6400 C.3     1  UNL1        0.0609
     24 C         139.9460  139.7731  161.7298 C.3     1  UNL1        0.0758
     25 O         140.2846  142.8907  159.2976 O.3     1  UNL1       -0.4790
     26 C         141.6510  142.6742  158.7178 C.ar    1  UNL1        0.1392
     27 C         142.8695  143.0378  159.5134 C.ar    1  UNL1        0.0367
     28 C         144.2359  142.8213  158.9336 C.ar    1  UNL1        0.0021
     29 C         144.3837  142.2412  157.5583 C.ar    1  UNL1        0.0177
     30 C         143.1652  141.8776  156.7627 C.ar    1  UNL1        0.0590
     31 CL        143.3130  141.2975  155.3873 Cl      1  UNL1       -0.0824
     32 C         141.7988  142.0941  157.3424 C.ar    1  UNL1        0.0480
     33 C         145.7501  142.0248  156.9785 C.3     1  UNL1        0.1644
     34 O         146.3246  143.0242  156.0188 O.3     1  UNL1       -0.3772
     35 H         145.8005  143.0270  155.2026 H       1  UNL1        0.2109
@<TRIPOS>UNITY_ATOM_ATTR
16 1
charge -1
@<TRIPOS>BOND
     1    16    17   ar
     2    17    18   ar
     3    17    10    1
     4    10    11   ar
     5    11    12   ar
     6    12    13   ar
     7    13    14   ar
     8    14    15   ar
     9    15     2    1
    10     2     3    2
    11     2     4   am
    12     4     5    1
    13     5     6    1
    14     6     7    1
    15     7     1    1
    16     1    19    1
    17    19    20    1
    18    20    21    1
    19    21    22    1
    20    22    25    1
    21    25    26    1
    22    26    27   ar
    23    27    28   ar
    24    28    29   ar
    25    29    33    1
    26    33    34    1
    27    29    30   ar
    28    30    31    1
    29    30    32   ar
    30    22    23    1
    31    23    24    1
    32     7     8    1
    33     8     9    1
    34    15    10   ar
    35     9     4    1
    36    24    19    1
    37    32    26   ar
    38    34    35    1
@<TRIPOS>MOLECULE
*****
 35 38 0 0 0
SMALL
GASTEIGER

@<TRIPOS>ATOM
      1 C         138.5937  139.7987  163.1876 C.3     1  UNL1        0.0722
      2 C         139.9065  140.3695  169.0144 C.2     1  UNL1        0.2490
      3 O         139.1284  139.5965  170.0377 O.2     1  UNL1       -0.2699
      4 N         139.5783  140.2268  167.5577 N.am    1  UNL1       -0.2761
      5 C         138.4720  139.3111  167.1243 C.3     1  UNL1        0.0938
      6 C         138.1438  139.1684  165.6677 C.3     1  UNL1        0.0230
      7 C         138.9219  139.9414  164.6443 C.3     1  UNL1        0.0194
      8 C         140.0281  140.8570  165.0777 C.3     1  UNL1        0.0230
      9 C         140.3563  140.9997  166.5344 C.3     1  UNL1        0.0938
     10 C         142.4258  140.7842  169.4951 C.ar    1  UNL1        0.0184
     11 C         143.5320  141.7000  169.9285 C.ar    1  UNL1        0.0013
     12 C         143.2251  143.1166  170.3145 C.ar    1  UNL1        0.0000
     13 C         141.8121  143.6175  170.2671 C.ar    1  UNL1        0.0001
     14 C         140.7059  142.7019  169.8337 C.ar    1  UNL1        0.0046
     15 C         141.0127  141.2852  169.4477 C.ar    1  UNL1        0.0547
     16 O         142.7147  138.2863  170.1488 O.co2   1  UNL1       -0.5446
     17 C         142.7327  139.3676  169.1092 C.2     1  UNL1        0.0730
     18 O         143.0575  139.0322  167.6837 O.co2   1  UNL1       -0.5446
     19 N         139.4515  140.4700  162.1563 N.3     1  UNL1       -0.2724
     20 C         139.5358  141.9668  162.1099 C.3     1  UNL1        0.0758
     21 C         140.3936  142.6380  161.0786 C.3     1  UNL1        0.0609
     22 C         141.1671  141.8124  160.0937 C.3     1  UNL1        0.1687
     23 C         141.0828  140.3155  160.1401 C.3     1  UNL1        0.0609
     24 C         140.2250  139.6443  161.1714 C.3     1  UNL1        0.0758
     25 O         142.0249  142.4836  159.0623 O.3     1  UNL1       -0.4790
     26 C         141.4585  143.5867  158.2184 C.ar    1  UNL1        0.1392
     27 C         142.1629  144.9088  158.1407 C.ar    1  UNL1        0.0367
     28 C         141.5964  146.0119  157.2967 C.ar    1  UNL1        0.0021
     29 C         140.3257  145.7930  156.5304 C.ar    1  UNL1        0.0177
     30 C         139.6213  144.4709  156.6081 C.ar    1  UNL1        0.0590
     31 CL        138.3505  144.2520  155.8419 Cl      1  UNL1       -0.0824
     32 C         140.1877  143.3678  157.4521 C.ar    1  UNL1        0.0480
     33 C         139.7593  146.8961  155.6865 C.3     1  UNL1        0.1644
     34 O         138.5570  147.6592  156.1578 O.3     1  UNL1       -0.3772
     35 H         137.7893  147.0671  156.1875 H       1  UNL1        0.2109
@<TRIPOS>UNITY_ATOM_ATTR
16 1
charge -1
@<TRIPOS>BOND
     1    16    17   ar
     2    17    18   ar
     3    17    10    1
     4    10    11   ar
     5    11    12   ar
     6    12    13   ar
     7    13    14   ar
     8    14    15   ar
     9    15     2    1
    10     2     3    2
    11     2     4   am
    12     4     5    1
    13     5     6    1
    14     6     7    1
    15     7     1    1
    16     1    19    1
    17    19    20    1
    18    20    21    1
    19    21    22    1
    20    22    25    1
    21    25    26    1
    22    26    27   ar
    23    27    28   ar
    24    28    29   ar
    25    29    33    1
    26    33    34    1
    27    29    30   ar
    28    30    31    1
    29    30    32   ar
    30    22    23    1
    31    23    24    1
    32     7     8    1
    33     8     9    1
    34    15    10   ar
    35     9     4    1
    36    24    19    1
    37    32    26   ar
    38    34    35    1
