@<TRIPOS>MOLECULE
*****
 28 31 0 0 0
SMALL
GASTEIGER

@<TRIPOS>ATOM
      1 C         140.7681  139.4218  165.1778 C.ar    1  UNL1        0.0357
      2 C         140.2827  140.2555  164.0292 C.ar    1  UNL1        0.0062
      3 C         140.2828  139.6905  162.6397 C.ar    1  UNL1        0.0370
      4 C         140.7682  138.2918  162.3989 C.ar    1  UNL1        0.1386
      5 C         141.2536  137.4581  163.5475 C.ar    1  UNL1        0.0370
      6 C         141.2535  138.0231  164.9370 C.ar    1  UNL1        0.0062
      7 C         138.4345  138.9285  166.9975 C.3     1  UNL1        0.0548
      8 C         139.6013  139.7402  167.4772 C.2     1  UNL1        0.1227
      9 C         140.7680  139.9868  166.5674 C.2     1  UNL1        0.1585
     10 O         141.9347  140.7984  167.0471 O.3     1  UNL1       -0.4512
     11 C         141.9347  141.3634  168.4366 C.ar    1  UNL1        0.1627
     12 C         143.1013  142.1750  168.9163 C.ar    1  UNL1        0.0388
     13 C         143.1012  142.7400  170.3058 C.ar    1  UNL1        0.0032
     14 C         141.9345  142.4933  171.2157 C.ar    1  UNL1        0.0015
     15 C         140.7678  141.6817  170.7360 C.ar    1  UNL1        0.0219
     16 C         140.7679  141.1168  169.3465 C.ar    1  UNL1        0.1444
     17 S         139.6012  140.3051  168.8667 S.O2    1  UNL1        0.0295
     18 O         139.1403  140.6271  170.2575 O.2     1  UNL1       -0.1644
     19 O         138.2744  139.6053  168.8700 O.2     1  UNL1       -0.1644
     20 O         140.7683  137.7268  161.0093 O.3     1  UNL1       -0.4754
     21 C         141.8452  138.1172  160.0409 C.3     1  UNL1        0.2068
     22 C         143.2797  138.1281  160.4790 C.3     1  UNL1        0.0646
     23 C         143.9697  139.4311  160.7554 C.3     1  UNL1        0.0759
     24 N         144.0160  139.9736  162.1530 N.3     1  UNL1       -0.2726
     25 C         144.4627  139.2263  163.3745 C.3     1  UNL1        0.0721
     26 C         144.3465  140.1495  164.5510 C.3     1  UNL1        0.0188
     27 C         143.8280  141.4674  164.0566 C.3     1  UNL1        0.0188
     28 C         143.6237  141.3586  162.5746 C.3     1  UNL1        0.0721
@<TRIPOS>BOND
     1     7     8    1
     2     8     9    2
     3     9     1    1
     4     1     2   ar
     5     2     3   ar
     6     3     4   ar
     7     4    20    1
     8    20    21    1
     9    21    22    1
    10    22    23    1
    11    23    24    1
    12    24    25    1
    13    25    26    1
    14    26    27    1
    15    27    28    1
    16     4     5   ar
    17     5     6   ar
    18     9    10    1
    19    10    11    1
    20    11    12   ar
    21    12    13   ar
    22    13    14   ar
    23    14    15   ar
    24    15    16   ar
    25    16    17    1
    26    17    18    2
    27    17    19    2
    28    17     8    1
    29     6     1   ar
    30    16    11   ar
    31    28    24    1
@<TRIPOS>MOLECULE
*****
 28 31 0 0 0
SMALL
GASTEIGER

@<TRIPOS>ATOM
      1 C         139.7214  141.8361  164.2813 C.ar    1  UNL1        0.0357
      2 C         138.6214  142.8360  164.0806 C.ar    1  UNL1        0.0062
      3 C         138.1645  143.1800  162.6939 C.ar    1  UNL1        0.0370
      4 C         138.8075  142.5241  161.5080 C.ar    1  UNL1        0.1386
      5 C         139.9074  141.5243  161.7087 C.ar    1  UNL1        0.0370
      6 C         140.3644  141.1803  163.0953 C.ar    1  UNL1        0.0062
      7 C         138.1761  139.8561  165.9219 C.3     1  UNL1        0.0548
      8 C         139.4058  140.5020  166.4883 C.2     1  UNL1        0.1227
      9 C         140.1784  141.4921  165.6680 C.2     1  UNL1        0.1585
     10 O         141.4080  142.1380  166.2343 O.3     1  UNL1       -0.4512
     11 C         141.8651  141.7940  167.6210 C.ar    1  UNL1        0.1627
     12 C         143.0947  142.4400  168.1873 C.ar    1  UNL1        0.0388
     13 C         143.5516  142.0959  169.5739 C.ar    1  UNL1        0.0032
     14 C         142.7790  141.1059  170.3942 C.ar    1  UNL1        0.0015
     15 C         141.5494  140.4599  169.8279 C.ar    1  UNL1        0.0219
     16 C         141.0924  140.8040  168.4413 C.ar    1  UNL1        0.1444
     17 S         139.8628  140.1580  167.8749 S.O2    1  UNL1        0.0295
     18 O         139.8968  139.5116  169.2281 O.2     1  UNL1       -0.1644
     19 O         138.6449  139.2875  167.7785 O.2     1  UNL1       -0.1644
     20 O         138.3504  142.8682  160.1213 O.3     1  UNL1       -0.4754
     21 C         139.3346  143.3835  159.1135 C.3     1  UNL1        0.2068
     22 C         140.1115  144.6351  159.3959 C.3     1  UNL1        0.0646
     23 C         141.5127  144.5451  159.9238 C.3     1  UNL1        0.0759
     24 N         141.7617  144.5933  161.4022 N.3     1  UNL1       -0.2726
     25 C         140.9792  145.3913  162.4026 C.3     1  UNL1        0.0721
     26 C         141.5708  145.1431  163.7584 C.3     1  UNL1        0.0188
     27 C         142.7190  144.1916  163.5960 C.3     1  UNL1        0.0188
     28 C         142.8370  143.8519  162.1397 C.3     1  UNL1        0.0721
@<TRIPOS>BOND
     1     7     8    1
     2     8     9    2
     3     9     1    1
     4     1     2   ar
     5     2     3   ar
     6     3     4   ar
     7     4    20    1
     8    20    21    1
     9    21    22    1
    10    22    23    1
    11    23    24    1
    12    24    25    1
    13    25    26    1
    14    26    27    1
    15    27    28    1
    16     4     5   ar
    17     5     6   ar
    18     9    10    1
    19    10    11    1
    20    11    12   ar
    21    12    13   ar
    22    13    14   ar
    23    14    15   ar
    24    15    16   ar
    25    16    17    1
    26    17    18    2
    27    17    19    2
    28    17     8    1
    29     6     1   ar
    30    16    11   ar
    31    28    24    1
@<TRIPOS>MOLECULE
*****
 28 31 0 0 0
SMALL
GASTEIGER

@<TRIPOS>ATOM
      1 C         139.7179  139.5085  165.1795 C.ar    1  UNL1        0.0357
      2 C         138.8513  140.3248  164.2672 C.ar    1  UNL1        0.0062
      3 C         138.5246  139.8201  162.8929 C.ar    1  UNL1        0.0370
      4 C         139.0647  138.4991  162.4311 C.ar    1  UNL1        0.1386
      5 C         139.9313  137.6828  163.3435 C.ar    1  UNL1        0.0370
      6 C         140.2580  138.1875  164.7177 C.ar    1  UNL1        0.0062
      7 C         137.8812  138.9072  167.4741 C.3     1  UNL1        0.0548
      8 C         139.1262  139.7125  167.7011 C.2     1  UNL1        0.1227
      9 C         140.0446  140.0131  166.5539 C.2     1  UNL1        0.1585
     10 O         141.2895  140.8184  166.7809 O.3     1  UNL1       -0.4512
     11 C         141.6162  141.3231  168.1552 C.ar    1  UNL1        0.1627
     12 C         142.8612  142.1284  168.3822 C.ar    1  UNL1        0.0388
     13 C         143.1878  142.6330  169.7564 C.ar    1  UNL1        0.0032
     14 C         142.2694  142.3323  170.9037 C.ar    1  UNL1        0.0015
     15 C         141.0245  141.5271  170.6767 C.ar    1  UNL1        0.0219
     16 C         140.6978  141.0224  169.3024 C.ar    1  UNL1        0.1444
     17 S         139.4528  140.2171  169.0754 S.O2    1  UNL1        0.0295
     18 O         139.3326  140.4729  170.5486 O.2     1  UNL1       -0.1644
     19 O         138.1661  139.5006  169.3600 O.2     1  UNL1       -0.1644
     20 O         138.7380  137.9944  161.0568 O.3     1  UNL1       -0.4754
     21 C         139.5067  138.4971  159.8709 C.3     1  UNL1        0.2068
     22 C         140.5936  139.5138  160.0577 C.3     1  UNL1        0.0646
     23 C         141.9945  139.0679  160.3560 C.3     1  UNL1        0.0759
     24 N         142.6006  139.3476  161.6993 N.3     1  UNL1       -0.2726
     25 C         142.3072  140.5339  162.5692 C.3     1  UNL1        0.0721
     26 C         143.1318  140.4096  163.8160 C.3     1  UNL1        0.0188
     27 C         143.9349  139.1466  163.7166 C.3     1  UNL1        0.0188
     28 C         143.6065  138.4903  162.4084 C.3     1  UNL1        0.0721
@<TRIPOS>BOND
     1     7     8    1
     2     8     9    2
     3     9     1    1
     4     1     2   ar
     5     2     3   ar
     6     3     4   ar
     7     4    20    1
     8    20    21    1
     9    21    22    1
    10    22    23    1
    11    23    24    1
    12    24    25    1
    13    25    26    1
    14    26    27    1
    15    27    28    1
    16     4     5   ar
    17     5     6   ar
    18     9    10    1
    19    10    11    1
    20    11    12   ar
    21    12    13   ar
    22    13    14   ar
    23    14    15   ar
    24    15    16   ar
    25    16    17    1
    26    17    18    2
    27    17    19    2
    28    17     8    1
    29     6     1   ar
    30    16    11   ar
    31    28    24    1
@<TRIPOS>MOLECULE
*****
 28 31 0 0 0
SMALL
GASTEIGER

@<TRIPOS>ATOM
      1 C         141.8519  142.0043  164.6944 C.ar    1  UNL1        0.0357
      2 C         142.8473  143.0273  164.2335 C.ar    1  UNL1        0.0062
      3 C         142.8541  143.4753  162.8021 C.ar    1  UNL1        0.0370
      4 C         141.8655  142.9004  161.8315 C.ar    1  UNL1        0.1386
      5 C         140.8701  141.8773  162.2924 C.ar    1  UNL1        0.0370
      6 C         140.8633  141.4293  163.7238 C.ar    1  UNL1        0.0062
      7 C         143.2892  139.4931  165.4870 C.3     1  UNL1        0.0548
      8 C         142.5637  140.3006  166.5222 C.2     1  UNL1        0.1227
      9 C         141.8450  141.5561  166.1259 C.2     1  UNL1        0.1585
     10 O         141.1195  142.3636  167.1611 O.3     1  UNL1       -0.4512
     11 C         141.1126  141.9155  168.5927 C.ar    1  UNL1        0.1627
     12 C         140.3871  142.7229  169.6278 C.ar    1  UNL1        0.0388
     13 C         140.3803  142.2748  171.0593 C.ar    1  UNL1        0.0032
     14 C         141.0990  141.0192  171.4555 C.ar    1  UNL1        0.0015
     15 C         141.8245  140.2118  170.4204 C.ar    1  UNL1        0.0219
     16 C         141.8313  140.6599  168.9889 C.ar    1  UNL1        0.1444
     17 S         142.5569  139.8525  167.9537 S.O2    1  UNL1        0.0295
     18 O         142.8356  139.0240  169.1727 O.2     1  UNL1       -0.1644
     19 O         143.3792  138.7572  167.3418 O.2     1  UNL1       -0.1644
     20 O         141.8724  143.3485  160.3999 O.3     1  UNL1       -0.4754
     21 C         141.4751  144.7523  160.0516 C.3     1  UNL1        0.2068
     22 C         140.1295  145.2742  160.4601 C.3     1  UNL1        0.0646
     23 C         139.9549  145.9343  161.7957 C.3     1  UNL1        0.0759
     24 N         139.3193  145.1817  162.9269 N.3     1  UNL1       -0.2726
     25 C         138.0765  144.3461  162.8418 C.3     1  UNL1        0.0721
     26 C         137.8039  143.7805  164.2041 C.3     1  UNL1        0.0188
     27 C         138.8783  144.2667  165.1312 C.3     1  UNL1        0.0188
     28 C         139.8148  145.1326  164.3418 C.3     1  UNL1        0.0721
@<TRIPOS>BOND
     1     7     8    1
     2     8     9    2
     3     9     1    1
     4     1     2   ar
     5     2     3   ar
     6     3     4   ar
     7     4    20    1
     8    20    21    1
     9    21    22    1
    10    22    23    1
    11    23    24    1
    12    24    25    1
    13    25    26    1
    14    26    27    1
    15    27    28    1
    16     4     5   ar
    17     5     6   ar
    18     9    10    1
    19    10    11    1
    20    11    12   ar
    21    12    13   ar
    22    13    14   ar
    23    14    15   ar
    24    15    16   ar
    25    16    17    1
    26    17    18    2
    27    17    19    2
    28    17     8    1
    29     6     1   ar
    30    16    11   ar
    31    28    24    1
@<TRIPOS>MOLECULE
*****
 28 31 0 0 0
SMALL
GASTEIGER

@<TRIPOS>ATOM
      1 C         139.6669  141.9178  164.3941 C.ar    1  UNL1        0.0357
      2 C         140.4857  141.5516  163.1919 C.ar    1  UNL1        0.0062
      3 C         140.0114  141.9264  161.8191 C.ar    1  UNL1        0.0370
      4 C         138.7183  142.6672  161.6486 C.ar    1  UNL1        0.1386
      5 C         137.8995  143.0333  162.8508 C.ar    1  UNL1        0.0370
      6 C         138.3738  142.6586  164.2236 C.ar    1  UNL1        0.0062
      7 C         138.1635  139.8735  165.9944 C.3     1  UNL1        0.0548
      8 C         139.3894  140.5209  166.5672 C.2     1  UNL1        0.1227
      9 C         140.1411  141.5430  165.7670 C.2     1  UNL1        0.1585
     10 O         141.3670  142.1904  166.3397 O.3     1  UNL1       -0.4512
     11 C         141.8413  141.8157  167.7126 C.ar    1  UNL1        0.1627
     12 C         143.0672  142.4631  168.2853 C.ar    1  UNL1        0.0388
     13 C         143.5414  142.0884  169.6581 C.ar    1  UNL1        0.0032
     14 C         142.7897  141.0662  170.4582 C.ar    1  UNL1        0.0015
     15 C         141.5638  140.4188  169.8855 C.ar    1  UNL1        0.0219
     16 C         141.0896  140.7936  168.5127 C.ar    1  UNL1        0.1444
     17 S         139.8637  140.1462  167.9400 S.O2    1  UNL1        0.0295
     18 O         139.9188  139.4643  169.2750 O.2     1  UNL1       -0.1644
     19 O         138.6568  139.2620  167.8309 O.2     1  UNL1       -0.1644
     20 O         138.2440  143.0419  160.2757 O.3     1  UNL1       -0.4754
     21 C         138.9298  142.4797  159.0659 C.3     1  UNL1        0.2068
     22 C         138.4065  141.2314  158.4196 C.3     1  UNL1        0.0646
     23 C         137.5874  140.2604  159.2174 C.3     1  UNL1        0.0759
     24 N         138.2404  139.4183  160.2730 N.3     1  UNL1       -0.2726
     25 C         139.5866  138.7643  160.1714 C.3     1  UNL1        0.0721
     26 C         139.8400  138.0240  161.4512 C.3     1  UNL1        0.0188
     27 C         138.6505  138.2205  162.3437 C.3     1  UNL1        0.0188
     28 C         137.6619  139.0821  161.6155 C.3     1  UNL1        0.0721
@<TRIPOS>BOND
     1     7     8    1
     2     8     9    2
     3     9     1    1
     4     1     2   ar
     5     2     3   ar
     6     3     4   ar
     7     4    20    1
     8    20    21    1
     9    21    22    1
    10    22    23    1
    11    23    24    1
    12    24    25    1
    13    25    26    1
    14    26    27    1
    15    27    28    1
    16     4     5   ar
    17     5     6   ar
    18     9    10    1
    19    10    11    1
    20    11    12   ar
    21    12    13   ar
    22    13    14   ar
    23    14    15   ar
    24    15    16   ar
    25    16    17    1
    26    17    18    2
    27    17    19    2
    28    17     8    1
    29     6     1   ar
    30    16    11   ar
    31    28    24    1
@<TRIPOS>MOLECULE
*****
 28 31 0 0 0
SMALL
GASTEIGER

@<TRIPOS>ATOM
      1 C         140.8358  139.6732  164.6060 C.ar    1  UNL1        0.0357
      2 C         141.2251  140.6914  163.5756 C.ar    1  UNL1        0.0062
      3 C         141.2780  140.3091  162.1262 C.ar    1  UNL1        0.0370
      4 C         140.9416  138.9086  161.7071 C.ar    1  UNL1        0.1386
      5 C         140.5523  137.8905  162.7375 C.ar    1  UNL1        0.0370
      6 C         140.4994  138.2728  164.1870 C.ar    1  UNL1        0.0062
      7 C         138.4950  138.8470  166.2906 C.3     1  UNL1        0.0548
      8 C         139.6124  139.6424  166.8979 C.2     1  UNL1        0.1227
      9 C         140.7829  140.0555  166.0556 C.2     1  UNL1        0.1585
     10 O         141.9003  140.8509  166.6628 O.3     1  UNL1       -0.4512
     11 C         141.8474  141.2331  168.1124 C.ar    1  UNL1        0.1627
     12 C         142.9648  142.0285  168.7195 C.ar    1  UNL1        0.0388
     13 C         142.9118  142.4107  170.1690 C.ar    1  UNL1        0.0032
     14 C         141.7414  141.9976  171.0113 C.ar    1  UNL1        0.0015
     15 C         140.6240  141.2023  170.4041 C.ar    1  UNL1        0.0219
     16 C         140.6769  140.8200  168.9546 C.ar    1  UNL1        0.1444
     17 S         139.5595  140.0247  168.3474 S.O2    1  UNL1        0.0295
     18 O         139.0579  140.1452  169.7559 O.2     1  UNL1       -0.1644
     19 O         138.2678  139.2712  168.2293 O.2     1  UNL1       -0.1644
     20 O         140.9946  138.5264  160.2576 O.3     1  UNL1       -0.4754
     21 C         139.7464  138.5618  159.4265 C.3     1  UNL1        0.2068
     22 C         138.9696  139.8381  159.2942 C.3     1  UNL1        0.0646
     23 C         137.7324  140.0517  160.1151 C.3     1  UNL1        0.0759
     24 N         137.7923  140.8891  161.3581 N.3     1  UNL1       -0.2726
     25 C         138.0735  142.3614  161.4166 C.3     1  UNL1        0.0721
     26 C         138.0366  142.7835  162.8555 C.3     1  UNL1        0.0188
     27 C         137.7325  141.5721  163.6862 C.3     1  UNL1        0.0188
     28 C         137.5816  140.4014  162.7608 C.3     1  UNL1        0.0721
@<TRIPOS>BOND
     1     7     8    1
     2     8     9    2
     3     9     1    1
     4     1     2   ar
     5     2     3   ar
     6     3     4   ar
     7     4    20    1
     8    20    21    1
     9    21    22    1
    10    22    23    1
    11    23    24    1
    12    24    25    1
    13    25    26    1
    14    26    27    1
    15    27    28    1
    16     4     5   ar
    17     5     6   ar
    18     9    10    1
    19    10    11    1
    20    11    12   ar
    21    12    13   ar
    22    13    14   ar
    23    14    15   ar
    24    15    16   ar
    25    16    17    1
    26    17    18    2
    27    17    19    2
    28    17     8    1
    29     6     1   ar
    30    16    11   ar
    31    28    24    1
@<TRIPOS>MOLECULE
*****
 28 31 0 0 0
SMALL
GASTEIGER

@<TRIPOS>ATOM
      1 C         140.4858  140.0919  164.3470 C.ar    1  UNL1        0.0357
      2 C         139.2476  139.2669  164.1571 C.ar    1  UNL1        0.0062
      3 C         138.7854  138.9155  162.7740 C.ar    1  UNL1        0.0370
      4 C         139.5614  139.3892  161.5809 C.ar    1  UNL1        0.1386
      5 C         140.7996  140.2142  161.7709 C.ar    1  UNL1        0.0370
      6 C         141.2618  140.5655  163.1539 C.ar    1  UNL1        0.0062
      7 C         142.5082  138.3657  165.7364 C.3     1  UNL1        0.0548
      8 C         141.9593  139.5802  166.4248 C.2     1  UNL1        0.1227
      9 C         140.9481  140.4433  165.7301 C.2     1  UNL1        0.1585
     10 O         140.3992  141.6577  166.4184 O.3     1  UNL1       -0.4512
     11 C         140.8615  142.0091  167.8015 C.ar    1  UNL1        0.1627
     12 C         140.3126  143.2235  168.4899 C.ar    1  UNL1        0.0388
     13 C         140.7749  143.5749  169.8729 C.ar    1  UNL1        0.0032
     14 C         141.7861  142.7118  170.5676 C.ar    1  UNL1        0.0015
     15 C         142.3350  141.4973  169.8793 C.ar    1  UNL1        0.0219
     16 C         141.8727  141.1460  168.4963 C.ar    1  UNL1        0.1444
     17 S         142.4216  139.9315  167.8079 S.O2    1  UNL1        0.0295
     18 O         143.1640  139.8514  169.1088 O.2     1  UNL1       -0.1644
     19 O         143.2283  138.6892  167.5713 O.2     1  UNL1       -0.1644
     20 O         139.0991  139.0378  160.1978 O.3     1  UNL1       -0.4754
     21 C         138.2724  140.0127  159.4131 C.3     1  UNL1        0.2068
     22 C         138.8813  141.2968  158.9333 C.3     1  UNL1        0.0646
     23 C         138.3873  142.6076  159.4698 C.3     1  UNL1        0.0759
     24 N         138.6459  142.9780  160.9001 N.3     1  UNL1       -0.2726
     25 C         139.7543  143.8585  161.3963 C.3     1  UNL1        0.0721
     26 C         139.6350  143.9576  162.8883 C.3     1  UNL1        0.0188
     27 C         138.4528  143.1383  163.3141 C.3     1  UNL1        0.0188
     28 C         137.8416  142.5329  162.0854 C.3     1  UNL1        0.0721
@<TRIPOS>BOND
     1     7     8    1
     2     8     9    2
     3     9     1    1
     4     1     2   ar
     5     2     3   ar
     6     3     4   ar
     7     4    20    1
     8    20    21    1
     9    21    22    1
    10    22    23    1
    11    23    24    1
    12    24    25    1
    13    25    26    1
    14    26    27    1
    15    27    28    1
    16     4     5   ar
    17     5     6   ar
    18     9    10    1
    19    10    11    1
    20    11    12   ar
    21    12    13   ar
    22    13    14   ar
    23    14    15   ar
    24    15    16   ar
    25    16    17    1
    26    17    18    2
    27    17    19    2
    28    17     8    1
    29     6     1   ar
    30    16    11   ar
    31    28    24    1
@<TRIPOS>MOLECULE
*****
 28 31 0 0 0
SMALL
GASTEIGER

@<TRIPOS>ATOM
      1 C         141.0400  141.7965  164.1441 C.ar    1  UNL1        0.0357
      2 C         140.1640  142.9009  163.6314 C.ar    1  UNL1        0.0062
      3 C         139.8224  142.9711  162.1725 C.ar    1  UNL1        0.0370
      4 C         140.3568  141.9371  161.2264 C.ar    1  UNL1        0.1386
      5 C         141.2329  140.8328  161.7391 C.ar    1  UNL1        0.0370
      6 C         141.5745  140.7625  163.1980 C.ar    1  UNL1        0.0062
      7 C         143.5361  143.1108  165.1651 C.3     1  UNL1        0.0548
      8 C         142.6297  142.3833  166.1136 C.2     1  UNL1        0.1227
      9 C         141.3817  141.7262  165.6030 C.2     1  UNL1        0.1585
     10 O         140.4753  140.9988  166.5514 O.3     1  UNL1       -0.4512
     11 C         140.8170  140.9285  168.0103 C.ar    1  UNL1        0.1627
     12 C         139.9106  140.2011  168.9586 C.ar    1  UNL1        0.0388
     13 C         140.2523  140.1308  170.4175 C.ar    1  UNL1        0.0032
     14 C         141.5003  140.7879  170.9280 C.ar    1  UNL1        0.0015
     15 C         142.4067  141.5153  169.9797 C.ar    1  UNL1        0.0219
     16 C         142.0650  141.5856  168.5208 C.ar    1  UNL1        0.1444
     17 S         142.9714  142.3130  167.5724 S.O2    1  UNL1        0.0295
     18 O         143.7179  142.5204  168.8569 O.2     1  UNL1       -0.1644
     19 O         144.1370  143.1125  167.0701 O.2     1  UNL1       -0.1644
     20 O         140.0152  142.0074  159.7675 O.3     1  UNL1       -0.4754
     21 C         138.6991  141.4790  159.2791 C.3     1  UNL1        0.2068
     22 C         138.3163  140.0540  159.5491 C.3     1  UNL1        0.0646
     23 C         137.3737  139.7301  160.6701 C.3     1  UNL1        0.0759
     24 N         137.9113  139.2727  161.9936 N.3     1  UNL1       -0.2726
     25 C         138.6116  137.9731  162.2592 C.3     1  UNL1        0.0721
     26 C         138.9762  137.9318  163.7136 C.3     1  UNL1        0.0188
     27 C         138.5011  139.2059  164.3469 C.3     1  UNL1        0.0188
     28 C         137.8430  140.0346  163.2838 C.3     1  UNL1        0.0721
@<TRIPOS>BOND
     1     7     8    1
     2     8     9    2
     3     9     1    1
     4     1     2   ar
     5     2     3   ar
     6     3     4   ar
     7     4    20    1
     8    20    21    1
     9    21    22    1
    10    22    23    1
    11    23    24    1
    12    24    25    1
    13    25    26    1
    14    26    27    1
    15    27    28    1
    16     4     5   ar
    17     5     6   ar
    18     9    10    1
    19    10    11    1
    20    11    12   ar
    21    12    13   ar
    22    13    14   ar
    23    14    15   ar
    24    15    16   ar
    25    16    17    1
    26    17    18    2
    27    17    19    2
    28    17     8    1
    29     6     1   ar
    30    16    11   ar
    31    28    24    1
@<TRIPOS>MOLECULE
*****
 28 31 0 0 0
SMALL
GASTEIGER

@<TRIPOS>ATOM
      1 C         139.4812  139.9078  165.3500 C.ar    1  UNL1        0.0357
      2 C         140.1527  138.7793  164.6251 C.ar    1  UNL1        0.0062
      3 C         139.6907  138.3894  163.2523 C.ar    1  UNL1        0.0370
      4 C         138.5573  139.1281  162.6045 C.ar    1  UNL1        0.1386
      5 C         137.8857  140.2565  163.3294 C.ar    1  UNL1        0.0370
      6 C         138.3477  140.6464  164.7022 C.ar    1  UNL1        0.0062
      7 C         137.8717  139.1170  167.7551 C.3     1  UNL1        0.0548
      8 C         139.1384  139.9023  167.9254 C.2     1  UNL1        0.1227
      9 C         139.9431  140.2977  166.7229 C.2     1  UNL1        0.1585
     10 O         141.2097  141.0829  166.8931 O.3     1  UNL1       -0.4512
     11 C         141.6717  141.4728  168.2660 C.ar    1  UNL1        0.1627
     12 C         142.9383  142.2581  168.4362 C.ar    1  UNL1        0.0388
     13 C         143.4002  142.6479  169.8090 C.ar    1  UNL1        0.0032
     14 C         142.5955  142.2525  171.0116 C.ar    1  UNL1        0.0015
     15 C         141.3289  141.4673  170.8413 C.ar    1  UNL1        0.0219
     16 C         140.8670  141.0774  169.4685 C.ar    1  UNL1        0.1444
     17 S         139.6003  140.2921  169.2982 S.O2    1  UNL1        0.0295
     18 O         139.6253  140.4254  170.7921 O.2     1  UNL1       -0.1644
     19 O         138.3423  139.5531  169.6467 O.2     1  UNL1       -0.1644
     20 O         138.0953  138.7381  161.2316 O.3     1  UNL1       -0.4754
     21 C         138.6797  139.4101  160.0246 C.3     1  UNL1        0.2068
     22 C         139.3170  140.7618  160.1537 C.3     1  UNL1        0.0646
     23 C         138.4701  141.9987  160.0989 C.3     1  UNL1        0.0759
     24 N         138.7992  143.1723  160.9730 N.3     1  UNL1       -0.2726
     25 C         138.1007  143.5464  162.2467 C.3     1  UNL1        0.0721
     26 C         138.7543  144.7832  162.7879 C.3     1  UNL1        0.0188
     27 C         139.8568  145.1737  161.8486 C.3     1  UNL1        0.0188
     28 C         139.8845  144.1780  160.7270 C.3     1  UNL1        0.0721
@<TRIPOS>BOND
     1     7     8    1
     2     8     9    2
     3     9     1    1
     4     1     2   ar
     5     2     3   ar
     6     3     4   ar
     7     4    20    1
     8    20    21    1
     9    21    22    1
    10    22    23    1
    11    23    24    1
    12    24    25    1
    13    25    26    1
    14    26    27    1
    15    27    28    1
    16     4     5   ar
    17     5     6   ar
    18     9    10    1
    19    10    11    1
    20    11    12   ar
    21    12    13   ar
    22    13    14   ar
    23    14    15   ar
    24    15    16   ar
    25    16    17    1
    26    17    18    2
    27    17    19    2
    28    17     8    1
    29     6     1   ar
    30    16    11   ar
    31    28    24    1
