@<TRIPOS>MOLECULE
*****
 18 20 0 0 0
SMALL
GASTEIGER

@<TRIPOS>ATOM
      1 C         138.1048  139.4816  165.4300 C.3     1  UNL1        0.0312
      2 C         139.1890  140.4678  165.7492 C.ar    1  UNL1       -0.0163
      3 C         139.7979  141.2934  164.6548 C.ar    1  UNL1       -0.0040
      4 C         140.8821  142.2797  164.9741 C.ar    1  UNL1        0.0010
      5 C         141.3574  142.4403  166.3876 C.ar    1  UNL1        0.0147
      6 C         140.7485  141.6147  167.4820 C.ar    1  UNL1        0.0531
      7 C         139.6643  140.6285  167.1628 C.ar    1  UNL1        0.0628
      8 C         139.0555  139.8029  168.2572 C.2     1  UNL1        0.2479
      9 O         137.9712  138.8166  167.9379 O.2     1  UNL1       -0.2701
     10 N         139.5307  139.9635  169.6708 N.am    1  UNL1       -0.2855
     11 C         140.6150  140.9498  169.9900 C.3     1  UNL1        0.1653
     12 C         141.0902  141.1104  171.4036 C.3     1  UNL1        0.1097
     13 N         142.1744  142.0966  171.7228 N.3     1  UNL1       -0.2932
     14 C         142.7833  142.9222  170.6284 C.3     1  UNL1        0.0904
     15 C         142.3080  142.7616  169.2149 C.3     1  UNL1        0.1093
     16 N         141.2238  141.7754  168.8957 N.pl3   1  UNL1       -0.2909
     17 H         139.1311  139.4216  170.3890 H       1  UNL1        0.1512
     18 H         142.9350  141.5694  172.1519 H       1  UNL1        0.1234
@<TRIPOS>BOND
     1     1     2    1
     2     2     3   ar
     3     3     4   ar
     4     4     5   ar
     5     5     6   ar
     6     6     7   ar
     7     7     8    1
     8     8     9    2
     9     8    10   am
    10    10    11    1
    11    11    12    1
    12    12    13    1
    13    13    14    1
    14    14    15    1
    15    15    16    1
    16     7     2   ar
    17    16    11    1
    18    16     6    1
    19    10    17    1
    20    13    18    1
@<TRIPOS>MOLECULE
*****
 18 20 0 0 0
SMALL
GASTEIGER

@<TRIPOS>ATOM
      1 C         138.8059  145.0026  165.0289 C.3     1  UNL1        0.0312
      2 C         139.2055  143.5852  165.3142 C.ar    1  UNL1       -0.0163
      3 C         139.9940  143.2622  166.5487 C.ar    1  UNL1       -0.0040
      4 C         140.3935  141.8448  166.8340 C.ar    1  UNL1        0.0010
      5 C         140.0045  140.7504  165.8848 C.ar    1  UNL1        0.0147
      6 C         139.2160  141.0734  164.6503 C.ar    1  UNL1        0.0531
      7 C         138.8165  142.4907  164.3650 C.ar    1  UNL1        0.0628
      8 C         138.0280  142.8137  163.1305 C.2     1  UNL1        0.2479
      9 O         137.6284  144.2311  162.8453 O.2     1  UNL1       -0.2701
     10 N         137.6390  141.7193  162.1814 N.am    1  UNL1       -0.2855
     11 C         138.0385  140.3019  162.4667 C.3     1  UNL1        0.1653
     12 C         137.6495  139.2075  161.5175 C.3     1  UNL1        0.1097
     13 N         138.0491  137.7902  161.8028 N.3     1  UNL1       -0.2932
     14 C         138.8376  137.4672  163.0373 C.3     1  UNL1        0.0904
     15 C         139.2266  138.5616  163.9864 C.3     1  UNL1        0.1093
     16 N         138.8270  139.9789  163.7011 N.pl3   1  UNL1       -0.2909
     17 H         137.1214  141.9313  161.3712 H       1  UNL1        0.1512
     18 H         138.6048  137.4751  161.0076 H       1  UNL1        0.1234
@<TRIPOS>BOND
     1     1     2    1
     2     2     3   ar
     3     3     4   ar
     4     4     5   ar
     5     5     6   ar
     6     6     7   ar
     7     7     8    1
     8     8     9    2
     9     8    10   am
    10    10    11    1
    11    11    12    1
    12    12    13    1
    13    13    14    1
    14    14    15    1
    15    15    16    1
    16     7     2   ar
    17    16    11    1
    18    16     6    1
    19    10    17    1
    20    13    18    1
@<TRIPOS>MOLECULE
*****
 18 20 0 0 0
SMALL
GASTEIGER

@<TRIPOS>ATOM
      1 C         141.4935  138.2741  163.9726 C.3     1  UNL1        0.0312
      2 C         140.6018  138.7710  165.0716 C.ar    1  UNL1       -0.0163
      3 C         139.1278  138.9151  164.8340 C.ar    1  UNL1       -0.0040
      4 C         138.2360  139.4120  165.9331 C.ar    1  UNL1        0.0010
      5 C         138.8183  139.7648  167.2697 C.ar    1  UNL1        0.0147
      6 C         140.2923  139.6207  167.5072 C.ar    1  UNL1        0.0531
      7 C         141.1841  139.1238  166.4082 C.ar    1  UNL1        0.0628
      8 C         142.6581  138.9797  166.6458 C.2     1  UNL1        0.2479
      9 O         143.5499  138.4828  165.5467 O.2     1  UNL1       -0.2701
     10 N         143.2404  139.3325  167.9823 N.am    1  UNL1       -0.2855
     11 C         142.3487  139.8295  169.0814 C.3     1  UNL1        0.1653
     12 C         142.9309  140.1822  170.4180 C.3     1  UNL1        0.1097
     13 N         142.0392  140.6791  171.5170 N.3     1  UNL1       -0.2932
     14 C         140.5652  140.8232  171.2794 C.3     1  UNL1        0.0904
     15 C         139.9829  140.4704  169.9429 C.3     1  UNL1        0.1093
     16 N         140.8746  139.9736  168.8439 N.pl3   1  UNL1       -0.2909
     17 H         144.2079  139.2379  168.1382 H       1  UNL1        0.1512
     18 H         142.3859  141.6006  171.7836 H       1  UNL1        0.1234
@<TRIPOS>BOND
     1     1     2    1
     2     2     3   ar
     3     3     4   ar
     4     4     5   ar
     5     5     6   ar
     6     6     7   ar
     7     7     8    1
     8     8     9    2
     9     8    10   am
    10    10    11    1
    11    11    12    1
    12    12    13    1
    13    13    14    1
    14    14    15    1
    15    15    16    1
    16     7     2   ar
    17    16    11    1
    18    16     6    1
    19    10    17    1
    20    13    18    1
@<TRIPOS>MOLECULE
*****
 18 20 0 0 0
SMALL
GASTEIGER

@<TRIPOS>ATOM
      1 C         138.7722  144.7554  165.1457 C.3     1  UNL1        0.0312
      2 C         139.9306  143.8901  165.5446 C.ar    1  UNL1       -0.0163
      3 C         139.9362  143.2150  166.8841 C.ar    1  UNL1       -0.0040
      4 C         141.0947  142.3496  167.2830 C.ar    1  UNL1        0.0010
      5 C         142.2475  142.1593  166.3424 C.ar    1  UNL1        0.0147
      6 C         142.2419  142.8344  165.0029 C.ar    1  UNL1        0.0531
      7 C         141.0835  143.6997  164.6040 C.ar    1  UNL1        0.0628
      8 C         141.0779  144.3748  163.2645 C.2     1  UNL1        0.2479
      9 O         139.9194  145.2402  162.8656 O.2     1  UNL1       -0.2701
     10 N         142.2307  144.1845  162.3239 N.am    1  UNL1       -0.2855
     11 C         143.3892  143.3191  162.7228 C.3     1  UNL1        0.1653
     12 C         144.5420  143.1288  161.7822 C.3     1  UNL1        0.1097
     13 N         145.7004  142.2634  162.1811 N.3     1  UNL1       -0.2932
     14 C         145.7060  141.5884  163.5206 C.3     1  UNL1        0.0904
     15 C         144.5532  141.7787  164.4612 C.3     1  UNL1        0.1093
     16 N         143.3948  142.6440  164.0623 N.pl3   1  UNL1       -0.2909
     17 H         142.2270  144.6275  161.4447 H       1  UNL1        0.1512
     18 H         146.5334  142.8510  162.1440 H       1  UNL1        0.1234
@<TRIPOS>BOND
     1     1     2    1
     2     2     3   ar
     3     3     4   ar
     4     4     5   ar
     5     5     6   ar
     6     6     7   ar
     7     7     8    1
     8     8     9    2
     9     8    10   am
    10    10    11    1
    11    11    12    1
    12    12    13    1
    13    13    14    1
    14    14    15    1
    15    15    16    1
    16     7     2   ar
    17    16    11    1
    18    16     6    1
    19    10    17    1
    20    13    18    1
@<TRIPOS>MOLECULE
*****
 18 20 0 0 0
SMALL
GASTEIGER

@<TRIPOS>ATOM
      1 C         141.5086  141.7297  171.2496 C.3     1  UNL1        0.0312
      2 C         141.8200  141.7132  169.7824 C.ar    1  UNL1       -0.0163
      3 C         143.0339  142.4266  169.2652 C.ar    1  UNL1       -0.0040
      4 C         143.3452  142.4102  167.7979 C.ar    1  UNL1        0.0010
      5 C         142.4426  141.6804  166.8478 C.ar    1  UNL1        0.0147
      6 C         141.2287  140.9670  167.3650 C.ar    1  UNL1        0.0531
      7 C         140.9173  140.9834  168.8322 C.ar    1  UNL1        0.0628
      8 C         139.7034  140.2700  169.3494 C.2     1  UNL1        0.2479
      9 O         139.3921  140.2865  170.8167 O.2     1  UNL1       -0.2701
     10 N         138.8008  139.5402  168.3993 N.am    1  UNL1       -0.2855
     11 C         139.1121  139.5238  166.9320 C.3     1  UNL1        0.1653
     12 C         138.2095  138.7940  165.9819 C.3     1  UNL1        0.1097
     13 N         138.5209  138.7776  164.5147 N.3     1  UNL1       -0.2932
     14 C         139.7348  139.4909  163.9976 C.3     1  UNL1        0.0904
     15 C         140.6374  140.2208  164.9476 C.3     1  UNL1        0.1093
     16 N         140.3261  140.2372  166.4149 N.pl3   1  UNL1       -0.2909
     17 H         138.0041  139.0720  168.7387 H       1  UNL1        0.1512
     18 H         137.7155  139.1835  164.0383 H       1  UNL1        0.1234
@<TRIPOS>BOND
     1     1     2    1
     2     2     3   ar
     3     3     4   ar
     4     4     5   ar
     5     5     6   ar
     6     6     7   ar
     7     7     8    1
     8     8     9    2
     9     8    10   am
    10    10    11    1
    11    11    12    1
    12    12    13    1
    13    13    14    1
    14    14    15    1
    15    15    16    1
    16     7     2   ar
    17    16    11    1
    18    16     6    1
    19    10    17    1
    20    13    18    1
@<TRIPOS>MOLECULE
*****
 18 20 0 0 0
SMALL
GASTEIGER

@<TRIPOS>ATOM
      1 C         139.7452  140.6718  168.5517 C.3     1  UNL1        0.0312
      2 C         139.6988  139.8314  167.3101 C.ar    1  UNL1       -0.0163
      3 C         138.4664  139.0402  166.9856 C.ar    1  UNL1       -0.0040
      4 C         138.4200  138.1998  165.7439 C.ar    1  UNL1        0.0010
      5 C         139.6059  138.1508  164.8268 C.ar    1  UNL1        0.0147
      6 C         140.8382  138.9420  165.1512 C.ar    1  UNL1        0.0531
      7 C         140.8847  139.7823  166.3928 C.ar    1  UNL1        0.0628
      8 C         142.1170  140.5736  166.7173 C.2     1  UNL1        0.2479
      9 O         142.1634  141.4140  167.9590 O.2     1  UNL1       -0.2701
     10 N         143.3029  140.5245  165.8001 N.am    1  UNL1       -0.2855
     11 C         143.2565  139.6842  164.5584 C.3     1  UNL1        0.1653
     12 C         144.4424  139.6351  163.6413 C.3     1  UNL1        0.1097
     13 N         144.3959  138.7948  162.3997 N.3     1  UNL1       -0.2932
     14 C         143.1636  138.0035  162.0752 C.3     1  UNL1        0.0904
     15 C         141.9777  138.0526  162.9924 C.3     1  UNL1        0.1093
     16 N         142.0242  138.8929  164.2340 N.pl3   1  UNL1       -0.2909
     17 H         144.1117  141.0439  166.0131 H       1  UNL1        0.1512
     18 H         145.1649  138.1279  162.4665 H       1  UNL1        0.1234
@<TRIPOS>BOND
     1     1     2    1
     2     2     3   ar
     3     3     4   ar
     4     4     5   ar
     5     5     6   ar
     6     6     7   ar
     7     7     8    1
     8     8     9    2
     9     8    10   am
    10    10    11    1
    11    11    12    1
    12    12    13    1
    13    13    14    1
    14    14    15    1
    15    15    16    1
    16     7     2   ar
    17    16    11    1
    18    16     6    1
    19    10    17    1
    20    13    18    1
@<TRIPOS>MOLECULE
*****
 18 20 0 0 0
SMALL
GASTEIGER

@<TRIPOS>ATOM
      1 C         143.7332  138.2205  166.3195 C.3     1  UNL1        0.0312
      2 C         142.8710  139.4472  166.2815 C.ar    1  UNL1       -0.0163
      3 C         141.6638  139.5432  167.1667 C.ar    1  UNL1       -0.0040
      4 C         140.8015  140.7700  167.1287 C.ar    1  UNL1        0.0010
      5 C         141.1464  141.9008  166.2055 C.ar    1  UNL1        0.0147
      6 C         142.3536  141.8049  165.3203 C.ar    1  UNL1        0.0531
      7 C         143.2158  140.5781  165.3583 C.ar    1  UNL1        0.0628
      8 C         144.4230  140.4821  164.4731 C.2     1  UNL1        0.2479
      9 O         145.2853  139.2553  164.5111 O.2     1  UNL1       -0.2701
     10 N         144.7678  141.6129  163.5499 N.am    1  UNL1       -0.2855
     11 C         143.9056  142.8397  163.5118 C.3     1  UNL1        0.1653
     12 C         144.2504  143.9705  162.5887 C.3     1  UNL1        0.1097
     13 N         143.3882  145.1973  162.5507 N.3     1  UNL1       -0.2932
     14 C         142.1810  145.2933  163.4359 C.3     1  UNL1        0.0904
     15 C         141.8361  144.1625  164.3591 C.3     1  UNL1        0.1093
     16 N         142.6984  142.9357  164.3971 N.pl3   1  UNL1       -0.2909
     17 H         145.5601  141.5499  162.9689 H       1  UNL1        0.1512
     18 H         143.0578  145.2954  161.5906 H       1  UNL1        0.1234
@<TRIPOS>BOND
     1     1     2    1
     2     2     3   ar
     3     3     4   ar
     4     4     5   ar
     5     5     6   ar
     6     6     7   ar
     7     7     8    1
     8     8     9    2
     9     8    10   am
    10    10    11    1
    11    11    12    1
    12    12    13    1
    13    13    14    1
    14    14    15    1
    15    15    16    1
    16     7     2   ar
    17    16    11    1
    18    16     6    1
    19    10    17    1
    20    13    18    1
@<TRIPOS>MOLECULE
*****
 18 20 0 0 0
SMALL
GASTEIGER

@<TRIPOS>ATOM
      1 C         137.9266  138.6985  166.8889 C.3     1  UNL1        0.0312
      2 C         139.2508  139.4011  166.9417 C.ar    1  UNL1       -0.0163
      3 C         139.5541  140.3462  168.0664 C.ar    1  UNL1       -0.0040
      4 C         140.8783  141.0488  168.1191 C.ar    1  UNL1        0.0010
      5 C         141.8993  140.8063  167.0473 C.ar    1  UNL1        0.0147
      6 C         141.5960  139.8612  165.9227 C.ar    1  UNL1        0.0531
      7 C         140.2718  139.1586  165.8699 C.ar    1  UNL1        0.0628
      8 C         139.9686  138.2135  164.7452 C.2     1  UNL1        0.2479
      9 O         138.6443  137.5109  164.6924 O.2     1  UNL1       -0.2701
     10 N         140.9895  137.9710  163.6734 N.am    1  UNL1       -0.2855
     11 C         142.3138  138.6736  163.7262 C.3     1  UNL1        0.1653
     12 C         143.3347  138.4311  162.6544 C.3     1  UNL1        0.1097
     13 N         144.6589  139.1337  162.7072 N.3     1  UNL1       -0.2932
     14 C         144.9622  140.0789  163.8318 C.3     1  UNL1        0.0904
     15 C         143.9412  140.3213  164.9037 C.3     1  UNL1        0.1093
     16 N         142.6171  139.6187  164.8508 N.pl3   1  UNL1       -0.2909
     17 H         140.7905  137.3507  162.9353 H       1  UNL1        0.1512
     18 H         144.7434  139.6682  161.8426 H       1  UNL1        0.1234
@<TRIPOS>BOND
     1     1     2    1
     2     2     3   ar
     3     3     4   ar
     4     4     5   ar
     5     5     6   ar
     6     6     7   ar
     7     7     8    1
     8     8     9    2
     9     8    10   am
    10    10    11    1
    11    11    12    1
    12    12    13    1
    13    13    14    1
    14    14    15    1
    15    15    16    1
    16     7     2   ar
    17    16    11    1
    18    16     6    1
    19    10    17    1
    20    13    18    1
@<TRIPOS>MOLECULE
*****
 18 20 0 0 0
SMALL
GASTEIGER

@<TRIPOS>ATOM
      1 C         139.5643  138.5392  163.9923 C.3     1  UNL1        0.0312
      2 C         140.7167  138.8599  164.8974 C.ar    1  UNL1       -0.0163
      3 C         142.1210  138.8000  164.3736 C.ar    1  UNL1       -0.0040
      4 C         143.2734  139.1206  165.2787 C.ar    1  UNL1        0.0010
      5 C         143.0215  139.5012  166.7076 C.ar    1  UNL1        0.0147
      6 C         141.6172  139.5611  167.2314 C.ar    1  UNL1        0.0531
      7 C         140.4648  139.2404  166.3263 C.ar    1  UNL1        0.0628
      8 C         139.0605  139.3003  166.8501 C.2     1  UNL1        0.2479
      9 O         137.9081  138.9797  165.9450 O.2     1  UNL1       -0.2701
     10 N         138.8086  139.6809  168.2790 N.am    1  UNL1       -0.2855
     11 C         139.9610  140.0015  169.1841 C.3     1  UNL1        0.1653
     12 C         139.7090  140.3821  170.6130 C.3     1  UNL1        0.1097
     13 N         140.8614  140.7027  171.5180 N.3     1  UNL1       -0.2932
     14 C         142.2657  140.6428  170.9942 C.3     1  UNL1        0.0904
     15 C         142.5176  140.2623  169.5654 C.3     1  UNL1        0.1093
     16 N         141.3653  139.9416  168.6603 N.pl3   1  UNL1       -0.2909
     17 H         137.8869  139.7202  168.6227 H       1  UNL1        0.1512
     18 H         140.8111  140.0509  172.3010 H       1  UNL1        0.1234
@<TRIPOS>BOND
     1     1     2    1
     2     2     3   ar
     3     3     4   ar
     4     4     5   ar
     5     5     6   ar
     6     6     7   ar
     7     7     8    1
     8     8     9    2
     9     8    10   am
    10    10    11    1
    11    11    12    1
    12    12    13    1
    13    13    14    1
    14    14    15    1
    15    15    16    1
    16     7     2   ar
    17    16    11    1
    18    16     6    1
    19    10    17    1
    20    13    18    1
