@<TRIPOS>MOLECULE
*****
 40 45 0 0 0
SMALL
GASTEIGER

@<TRIPOS>ATOM
      1 C         142.1946  137.8735  163.8393 C.3     1  UNL1        0.0932
      2 C         142.5580  138.2123  162.4239 C.3     1  UNL1        0.0286
      3 C         143.6782  139.1703  162.1460 C.3     1  UNL1        0.0193
      4 C         144.4351  139.7895  163.2834 C.3     1  UNL1        0.0700
      5 C         144.0718  139.4507  164.6987 C.3     1  UNL1        0.0193
      6 C         142.9515  138.4927  164.9767 C.3     1  UNL1        0.0286
      7 C         143.8290  139.2700  163.4853 C.3     1  UNL1        0.1562
      8 O         142.8160  138.4038  163.7366 O.3     1  UNL1       -0.3572
      9 N         145.5553  140.7475  163.0055 N.3     1  UNL1       -0.2926
     10 H         145.6391  140.8163  161.9913 H       1  UNL1        0.1236
     11 C         145.4897  142.1510  163.5308 C.3     1  UNL1        0.1152
     12 C         144.2563  142.9764  163.3131 C.ar    1  UNL1        0.0765
     13 C         143.4652  143.4673  164.4892 C.ar    1  UNL1        0.0193
     14 C         142.2318  144.2927  164.2715 C.ar    1  UNL1        0.0411
     15 C         141.7894  144.6271  162.8777 C.ar    1  UNL1        0.1708
     16 C         142.5806  144.1362  161.7017 C.ar    1  UNL1        0.1682
     17 N         143.8140  143.3108  161.9194 N.ar    1  UNL1       -0.2304
     18 N         142.1383  144.4706  160.3080 N.am    1  UNL1       -0.2639
     19 C         140.9048  145.2960  160.0902 C.2     1  UNL1        0.2718
     20 O         140.4625  145.6304  158.6965 O.2     1  UNL1       -0.2707
     21 C         140.1137  145.7870  161.2663 C.3     1  UNL1        0.2898
     22 O         140.5560  145.4525  162.6600 O.3     1  UNL1       -0.4628
     23 H         142.6575  144.1483  159.5361 H       1  UNL1        0.1565
     24 C         141.0743  136.9155  164.1172 C.3     1  UNL1        0.0319
     25 C         139.7273  137.4345  164.5248 C.3     1  UNL1        0.0304
     26 C         137.7039  143.4444  162.9318 C.3     1  UNL1        0.0327
     27 C         138.3856  142.3959  163.7599 C.ar    1  UNL1        0.0001
     28 C         139.0783  142.7796  165.0339 C.ar    1  UNL1        0.0352
     29 C         139.7601  141.7311  165.8621 C.ar    1  UNL1        0.1860
     30 N         139.7491  140.2989  165.4164 N.ar    1  UNL1       -0.2261
     31 C         139.0565  139.9152  164.1423 C.ar    1  UNL1        0.0961
     32 C         139.0456  138.4830  163.6966 C.ar    1  UNL1       -0.0014
     33 C         138.3529  138.0993  162.4226 C.ar    1  UNL1        0.0179
     34 C         137.6712  139.1478  161.5945 C.ar    1  UNL1        0.0986
     35 N         137.6821  140.5800  162.0402 N.ar    1  UNL1       -0.2427
     36 C         138.3747  140.9637  163.3142 C.ar    1  UNL1        0.0947
     37 S         140.4527  142.1148  167.1361 S.O2    1  UNL1        0.0268
     38 C         141.1454  142.4986  168.4101 C.3     1  UNL1        0.1834
     39 O         139.9835  143.5293  166.9651 O.2     1  UNL1       -0.1671
     40 O         140.9218  140.7004  167.3070 O.2     1  UNL1       -0.1671
@<TRIPOS>BOND
     1    26    27    1
     2    27    28   ar
     3    28    29   ar
     4    29    37    1
     5    37    38    1
     6    37    39    2
     7    37    40    2
     8    29    30   ar
     9    30    31   ar
    10    31    32   ar
    11    32    25    1
    12    25    24    1
    13    24     1    1
    14     1     2    1
    15     2     3    1
    16     3     4    1
    17     4     9    1
    18     9    11    1
    19    11    12    1
    20    12    13   ar
    21    13    14   ar
    22    14    15   ar
    23    15    16   ar
    24    16    17   ar
    25    16    18    1
    26    18    19   am
    27    19    20    2
    28    19    21    1
    29    21    22    1
    30     4     5    1
    31     5     6    1
    32     4     7    1
    33     7     8    1
    34    32    33   ar
    35    33    34   ar
    36    34    35   ar
    37    35    36   ar
    38    36    27   ar
    39    36    31   ar
    40     6     1    1
    41     8     1    1
    42    17    12   ar
    43    22    15    1
    44     9    10    1
    45    18    23    1
@<TRIPOS>MOLECULE
*****
 40 45 0 0 0
SMALL
GASTEIGER

@<TRIPOS>ATOM
      1 C         142.2980  144.7117  163.5319 C.3     1  UNL1        0.0932
      2 C         141.0317  144.6319  164.3321 C.3     1  UNL1        0.0286
      3 C         139.7318  144.3230  163.6502 C.3     1  UNL1        0.0193
      4 C         139.6982  144.0940  162.1682 C.3     1  UNL1        0.0700
      5 C         140.9645  144.1738  161.3680 C.3     1  UNL1        0.0193
      6 C         142.2644  144.4827  162.0499 C.3     1  UNL1        0.0286
      7 C         140.4344  144.2603  162.4974 C.3     1  UNL1        0.1562
      8 O         141.6097  144.5396  163.1140 O.3     1  UNL1       -0.3572
      9 N         138.3984  143.7851  161.4863 N.3     1  UNL1       -0.2926
     10 H         138.2872  144.4712  160.7398 H       1  UNL1        0.1236
     11 C         138.1767  142.4354  160.8705 C.3     1  UNL1        0.1152
     12 C         138.3475  141.1961  161.6982 C.ar    1  UNL1        0.0765
     13 C         138.7942  139.9183  161.0520 C.ar    1  UNL1        0.0193
     14 C         138.9650  138.6791  161.8797 C.ar    1  UNL1        0.0411
     15 C         138.6891  138.7176  163.3536 C.ar    1  UNL1        0.1708
     16 C         138.2424  139.9955  163.9998 C.ar    1  UNL1        0.1682
     17 N         138.0716  141.2348  163.1720 N.ar    1  UNL1       -0.2304
     18 N         137.9665  140.0341  165.4737 N.am    1  UNL1       -0.2639
     19 C         138.1373  138.7949  166.3014 C.2     1  UNL1        0.2718
     20 O         137.8613  138.8335  167.7753 O.2     1  UNL1       -0.2707
     21 C         138.5840  137.5170  165.6553 C.3     1  UNL1        0.2898
     22 O         138.8599  137.4784  164.1813 O.3     1  UNL1       -0.4628
     23 H         137.6733  140.8728  165.8978 H       1  UNL1        0.1565
     24 C         143.5978  145.0206  164.2138 C.3     1  UNL1        0.0319
     25 C         144.3507  143.9330  164.9212 C.3     1  UNL1        0.0304
     26 C         142.3227  137.7172  164.8925 C.3     1  UNL1        0.0327
     27 C         142.4151  139.1327  165.3801 C.ar    1  UNL1        0.0001
     28 C         141.6321  139.5635  166.5847 C.ar    1  UNL1        0.0352
     29 C         141.7245  140.9791  167.0724 C.ar    1  UNL1        0.1860
     30 N         142.5999  141.9637  166.3553 N.ar    1  UNL1       -0.2261
     31 C         143.3829  141.5328  165.1506 C.ar    1  UNL1        0.0961
     32 C         144.2583  142.5174  164.4335 C.ar    1  UNL1       -0.0014
     33 C         145.0412  142.0866  163.2288 C.ar    1  UNL1        0.0179
     34 C         144.9488  140.6711  162.7412 C.ar    1  UNL1        0.0986
     35 N         144.0734  139.6865  163.4583 N.ar    1  UNL1       -0.2427
     36 C         143.2905  140.1173  164.6630 C.ar    1  UNL1        0.0947
     37 S         140.9416  141.4099  168.2771 S.O2    1  UNL1        0.0268
     38 C         140.1586  141.8408  169.4819 C.3     1  UNL1        0.1834
     39 O         142.0924  141.0301  169.1609 O.2     1  UNL1       -0.1671
     40 O         139.7907  141.7898  167.3933 O.2     1  UNL1       -0.1671
@<TRIPOS>BOND
     1    26    27    1
     2    27    28   ar
     3    28    29   ar
     4    29    37    1
     5    37    38    1
     6    37    39    2
     7    37    40    2
     8    29    30   ar
     9    30    31   ar
    10    31    32   ar
    11    32    25    1
    12    25    24    1
    13    24     1    1
    14     1     2    1
    15     2     3    1
    16     3     4    1
    17     4     9    1
    18     9    11    1
    19    11    12    1
    20    12    13   ar
    21    13    14   ar
    22    14    15   ar
    23    15    16   ar
    24    16    17   ar
    25    16    18    1
    26    18    19   am
    27    19    20    2
    28    19    21    1
    29    21    22    1
    30     4     5    1
    31     5     6    1
    32     4     7    1
    33     7     8    1
    34    32    33   ar
    35    33    34   ar
    36    34    35   ar
    37    35    36   ar
    38    36    27   ar
    39    36    31   ar
    40     6     1    1
    41     8     1    1
    42    17    12   ar
    43    22    15    1
    44     9    10    1
    45    18    23    1
@<TRIPOS>MOLECULE
*****
 40 45 0 0 0
SMALL
GASTEIGER

@<TRIPOS>ATOM
      1 C         144.4754  142.8861  163.1911 C.3     1  UNL1        0.0932
      2 C         143.7458  142.9807  161.8839 C.3     1  UNL1        0.0286
      3 C         142.6344  143.9739  161.7154 C.3     1  UNL1        0.0193
      4 C         142.2526  144.8725  162.8541 C.3     1  UNL1        0.0700
      5 C         142.9821  144.7780  164.1613 C.3     1  UNL1        0.0193
      6 C         144.0935  143.7847  164.3299 C.3     1  UNL1        0.0286
      7 C         142.8683  144.3440  162.9940 C.3     1  UNL1        0.1562
      8 O         143.8732  143.4459  163.1463 O.3     1  UNL1       -0.3572
      9 N         141.1412  145.8657  162.6857 N.3     1  UNL1       -0.2926
     10 H         141.1082  146.1053  161.6947 H       1  UNL1        0.1236
     11 C         139.7432  145.5027  163.0903 C.3     1  UNL1        0.1152
     12 C         139.2125  144.1291  162.8047 C.ar    1  UNL1        0.0765
     13 C         138.8338  143.2210  163.9369 C.ar    1  UNL1        0.0193
     14 C         138.3031  141.8474  163.6512 C.ar    1  UNL1        0.0411
     15 C         138.1511  141.3819  162.2334 C.ar    1  UNL1        0.1708
     16 C         138.5298  142.2901  161.1012 C.ar    1  UNL1        0.1682
     17 N         139.0605  143.6637  161.3869 N.ar    1  UNL1       -0.2304
     18 N         138.3778  141.8246  159.6834 N.am    1  UNL1       -0.2639
     19 C         137.8471  140.4510  159.3977 C.2     1  UNL1        0.2718
     20 O         137.6951  139.9856  157.9799 O.2     1  UNL1       -0.2707
     21 C         137.4684  139.5428  160.5299 C.3     1  UNL1        0.2898
     22 O         137.6204  140.0083  161.9477 O.3     1  UNL1       -0.4628
     23 H         138.6263  142.4207  158.9403 H       1  UNL1        0.1565
     24 C         145.5867  141.8929  163.3596 C.3     1  UNL1        0.0319
     25 C         145.3353  140.6009  164.0789 C.3     1  UNL1        0.0304
     26 C         139.2545  138.3499  164.9201 C.3     1  UNL1        0.0327
     27 C         140.4792  139.1571  165.2340 C.ar    1  UNL1        0.0001
     28 C         140.5006  140.0495  166.4395 C.ar    1  UNL1        0.0352
     29 C         141.7253  140.8567  166.7534 C.ar    1  UNL1        0.1860
     30 N         142.9287  140.7714  165.8619 N.ar    1  UNL1       -0.2261
     31 C         142.9072  139.8790  164.6565 C.ar    1  UNL1        0.0961
     32 C         144.1105  139.7937  163.7650 C.ar    1  UNL1       -0.0014
     33 C         144.0892  138.9013  162.5595 C.ar    1  UNL1        0.0179
     34 C         142.8645  138.0941  162.2456 C.ar    1  UNL1        0.0986
     35 N         141.6612  138.1794  163.1371 N.ar    1  UNL1       -0.2427
     36 C         141.6825  139.0718  164.3425 C.ar    1  UNL1        0.0947
     37 S         141.7467  141.7491  167.9589 S.O2    1  UNL1        0.0268
     38 C         141.7681  142.6416  169.1643 C.3     1  UNL1        0.1834
     39 O         140.6381  142.5705  167.3704 O.2     1  UNL1       -0.1671
     40 O         142.8553  140.9278  168.5473 O.2     1  UNL1       -0.1671
@<TRIPOS>BOND
     1    26    27    1
     2    27    28   ar
     3    28    29   ar
     4    29    37    1
     5    37    38    1
     6    37    39    2
     7    37    40    2
     8    29    30   ar
     9    30    31   ar
    10    31    32   ar
    11    32    25    1
    12    25    24    1
    13    24     1    1
    14     1     2    1
    15     2     3    1
    16     3     4    1
    17     4     9    1
    18     9    11    1
    19    11    12    1
    20    12    13   ar
    21    13    14   ar
    22    14    15   ar
    23    15    16   ar
    24    16    17   ar
    25    16    18    1
    26    18    19   am
    27    19    20    2
    28    19    21    1
    29    21    22    1
    30     4     5    1
    31     5     6    1
    32     4     7    1
    33     7     8    1
    34    32    33   ar
    35    33    34   ar
    36    34    35   ar
    37    35    36   ar
    38    36    27   ar
    39    36    31   ar
    40     6     1    1
    41     8     1    1
    42    17    12   ar
    43    22    15    1
    44     9    10    1
    45    18    23    1
@<TRIPOS>MOLECULE
*****
 40 45 0 0 0
SMALL
GASTEIGER

@<TRIPOS>ATOM
      1 C         142.1522  138.0621  163.1310 C.3     1  UNL1        0.0932
      2 C         142.8462  138.4261  164.4101 C.3     1  UNL1        0.0286
      3 C         144.0130  139.3684  164.3885 C.3     1  UNL1        0.0193
      4 C         144.4859  139.9468  163.0879 C.3     1  UNL1        0.0700
      5 C         143.7920  139.5830  161.8088 C.3     1  UNL1        0.0193
      6 C         142.6252  138.6406  161.8303 C.3     1  UNL1        0.0286
      7 C         143.8423  139.4347  163.0495 C.3     1  UNL1        0.1562
      8 O         142.7872  138.5826  163.0691 O.3     1  UNL1       -0.3572
      9 N         145.6527  140.8892  163.0663 N.3     1  UNL1       -0.2926
     10 H         145.9223  141.0017  162.0890 H       1  UNL1        0.1236
     11 C         145.5133  142.2687  163.6386 C.3     1  UNL1        0.1152
     12 C         144.2695  143.0661  163.3796 C.ar    1  UNL1        0.0765
     13 C         143.4484  143.5697  164.5294 C.ar    1  UNL1        0.0193
     14 C         142.2046  144.3670  164.2704 C.ar    1  UNL1        0.0411
     15 C         141.7819  144.6608  162.8614 C.ar    1  UNL1        0.1708
     16 C         142.6030  144.1572  161.7116 C.ar    1  UNL1        0.1682
     17 N         143.8469  143.3598  161.9707 N.ar    1  UNL1       -0.2304
     18 N         142.1804  144.4510  160.3027 N.am    1  UNL1       -0.2639
     19 C         140.9365  145.2483  160.0436 C.2     1  UNL1        0.2718
     20 O         140.5138  145.5421  158.6347 O.2     1  UNL1       -0.2707
     21 C         140.1154  145.7519  161.1934 C.3     1  UNL1        0.2898
     22 O         140.5381  145.4581  162.6024 O.3     1  UNL1       -0.4628
     23 H         142.7193  144.1204  159.5480 H       1  UNL1        0.1565
     24 C         140.9854  137.1198  163.1526 C.3     1  UNL1        0.0319
     25 C         139.5862  137.6572  163.0954 C.3     1  UNL1        0.0304
     26 C         137.7519  143.8831  163.8847 C.3     1  UNL1        0.0327
     27 C         138.1089  142.6388  163.1269 C.ar    1  UNL1        0.0001
     28 C         138.0844  142.6411  161.6272 C.ar    1  UNL1        0.0352
     29 C         138.4415  141.3968  160.8693 C.ar    1  UNL1        0.1860
     30 N         138.8231  140.1502  161.6113 N.ar    1  UNL1       -0.2261
     31 C         138.8475  140.1480  163.1112 C.ar    1  UNL1        0.0961
     32 C         139.2291  138.9015  163.8532 C.ar    1  UNL1       -0.0014
     33 C         139.2536  138.8993  165.3530 C.ar    1  UNL1        0.0179
     34 C         138.8965  140.1435  166.1107 C.ar    1  UNL1        0.0986
     35 N         138.5150  141.3901  165.3687 N.ar    1  UNL1       -0.2427
     36 C         138.4905  141.3923  163.8689 C.ar    1  UNL1        0.0947
     37 S         138.4170  141.3990  159.3696 S.O2    1  UNL1        0.0268
     38 C         138.3925  141.4012  157.8697 C.3     1  UNL1        0.1834
     39 O         138.4903  139.9009  159.3661 O.2     1  UNL1       -0.1671
     40 O         138.3437  142.8972  159.3730 O.2     1  UNL1       -0.1671
@<TRIPOS>BOND
     1    26    27    1
     2    27    28   ar
     3    28    29   ar
     4    29    37    1
     5    37    38    1
     6    37    39    2
     7    37    40    2
     8    29    30   ar
     9    30    31   ar
    10    31    32   ar
    11    32    25    1
    12    25    24    1
    13    24     1    1
    14     1     2    1
    15     2     3    1
    16     3     4    1
    17     4     9    1
    18     9    11    1
    19    11    12    1
    20    12    13   ar
    21    13    14   ar
    22    14    15   ar
    23    15    16   ar
    24    16    17   ar
    25    16    18    1
    26    18    19   am
    27    19    20    2
    28    19    21    1
    29    21    22    1
    30     4     5    1
    31     5     6    1
    32     4     7    1
    33     7     8    1
    34    32    33   ar
    35    33    34   ar
    36    34    35   ar
    37    35    36   ar
    38    36    27   ar
    39    36    31   ar
    40     6     1    1
    41     8     1    1
    42    17    12   ar
    43    22    15    1
    44     9    10    1
    45    18    23    1
@<TRIPOS>MOLECULE
*****
 40 45 0 0 0
SMALL
GASTEIGER

@<TRIPOS>ATOM
      1 C         143.7574  143.5696  162.2596 C.3     1  UNL1        0.0932
      2 C         142.6878  143.5560  161.2080 C.3     1  UNL1        0.0286
      3 C         141.3912  144.2709  161.4478 C.3     1  UNL1        0.0193
      4 C         141.1641  144.9995  162.7392 C.3     1  UNL1        0.0700
      5 C         142.2336  145.0131  163.7908 C.3     1  UNL1        0.0193
      6 C         143.5304  144.2981  163.5510 C.3     1  UNL1        0.0286
      7 C         141.8909  144.6222  162.6534 C.3     1  UNL1        0.1562
      8 O         143.0634  143.9757  162.4365 O.3     1  UNL1       -0.3572
      9 N         139.8675  145.7144  162.9790 N.3     1  UNL1       -0.2926
     10 H         139.8470  146.5093  162.3402 H       1  UNL1        0.1236
     11 C         138.5669  144.9870  162.8070 C.3     1  UNL1        0.1152
     12 C         138.4257  143.5767  163.2979 C.ar    1  UNL1        0.0765
     13 C         137.7933  142.5370  162.4209 C.ar    1  UNL1        0.0193
     14 C         137.6521  141.1267  162.9118 C.ar    1  UNL1        0.0411
     15 C         138.1434  140.7560  164.2798 C.ar    1  UNL1        0.1708
     16 C         138.7758  141.7957  165.1568 C.ar    1  UNL1        0.1682
     17 N         138.9170  143.2060  164.6658 N.ar    1  UNL1       -0.2304
     18 N         139.2671  141.4250  166.5247 N.am    1  UNL1       -0.2639
     19 C         139.1260  140.0146  167.0157 C.2     1  UNL1        0.2718
     20 O         139.6172  139.6440  168.3836 O.2     1  UNL1       -0.2707
     21 C         138.4935  138.9750  166.1387 C.3     1  UNL1        0.2898
     22 O         138.0022  139.3457  164.7707 O.3     1  UNL1       -0.4628
     23 H         139.6822  142.1074  167.1003 H       1  UNL1        0.1565
     24 C         145.0541  142.8546  162.0198 C.3     1  UNL1        0.0319
     25 C         145.3605  141.5878  162.7623 C.3     1  UNL1        0.0304
     26 C         141.1361  136.8744  164.4016 C.3     1  UNL1        0.0327
     27 C         141.9902  138.0900  164.6080 C.ar    1  UNL1        0.0001
     28 C         142.0135  138.7724  165.9436 C.ar    1  UNL1        0.0352
     29 C         142.8677  139.9881  166.1500 C.ar    1  UNL1        0.1860
     30 N         143.6986  140.5213  165.0207 N.ar    1  UNL1       -0.2261
     31 C         143.6754  139.8389  163.6851 C.ar    1  UNL1        0.0961
     32 C         144.5063  140.3721  162.5559 C.ar    1  UNL1       -0.0014
     33 C         144.4831  139.6898  161.2203 C.ar    1  UNL1        0.0179
     34 C         143.6289  138.4742  161.0140 C.ar    1  UNL1        0.0986
     35 N         142.7980  137.9409  162.1432 N.ar    1  UNL1       -0.2427
     36 C         142.8212  138.6233  163.4788 C.ar    1  UNL1        0.0947
     37 S         142.8909  140.6704  167.4855 S.O2    1  UNL1        0.0268
     38 C         142.9141  141.3527  168.8212 C.3     1  UNL1        0.1834
     39 O         143.0078  139.3379  168.1643 O.2     1  UNL1       -0.1671
     40 O         142.7740  142.0029  166.8068 O.2     1  UNL1       -0.1671
@<TRIPOS>BOND
     1    26    27    1
     2    27    28   ar
     3    28    29   ar
     4    29    37    1
     5    37    38    1
     6    37    39    2
     7    37    40    2
     8    29    30   ar
     9    30    31   ar
    10    31    32   ar
    11    32    25    1
    12    25    24    1
    13    24     1    1
    14     1     2    1
    15     2     3    1
    16     3     4    1
    17     4     9    1
    18     9    11    1
    19    11    12    1
    20    12    13   ar
    21    13    14   ar
    22    14    15   ar
    23    15    16   ar
    24    16    17   ar
    25    16    18    1
    26    18    19   am
    27    19    20    2
    28    19    21    1
    29    21    22    1
    30     4     5    1
    31     5     6    1
    32     4     7    1
    33     7     8    1
    34    32    33   ar
    35    33    34   ar
    36    34    35   ar
    37    35    36   ar
    38    36    27   ar
    39    36    31   ar
    40     6     1    1
    41     8     1    1
    42    17    12   ar
    43    22    15    1
    44     9    10    1
    45    18    23    1
@<TRIPOS>MOLECULE
*****
 40 45 0 0 0
SMALL
GASTEIGER

@<TRIPOS>ATOM
      1 C         140.5678  138.2939  161.0956 C.3     1  UNL1        0.0932
      2 C         141.5009  138.1360  162.2595 C.3     1  UNL1        0.0286
      3 C         140.9574  137.7983  163.6161 C.3     1  UNL1        0.0193
      4 C         139.4808  137.6185  163.8090 C.3     1  UNL1        0.0700
      5 C         138.5477  137.7763  162.6453 C.3     1  UNL1        0.0193
      6 C         139.0912  138.1141  161.2885 C.3     1  UNL1        0.0286
      7 C         139.7317  137.8031  163.0468 C.3     1  UNL1        0.1562
      8 O         140.2232  138.1084  161.8201 O.3     1  UNL1       -0.3572
      9 N         138.9373  137.2807  165.1656 N.3     1  UNL1       -0.2926
     10 H         139.7325  137.0022  165.7404 H       1  UNL1        0.1236
     11 C         138.1779  138.3115  165.9473 C.3     1  UNL1        0.1152
     12 C         138.9019  139.4774  166.5525 C.ar    1  UNL1        0.0765
     13 C         139.5243  140.5157  165.6668 C.ar    1  UNL1        0.0193
     14 C         140.2484  141.6815  166.2721 C.ar    1  UNL1        0.0411
     15 C         140.3501  141.8092  167.7632 C.ar    1  UNL1        0.1708
     16 C         139.7277  140.7709  168.6490 C.ar    1  UNL1        0.1682
     17 N         139.0036  139.6050  168.0436 N.ar    1  UNL1       -0.2304
     18 N         139.8293  140.8985  170.1400 N.am    1  UNL1       -0.2639
     19 C         140.5534  142.0645  170.7454 C.2     1  UNL1        0.2718
     20 O         140.6551  142.1921  172.2365 O.2     1  UNL1       -0.2707
     21 C         141.1758  143.1027  169.8596 C.3     1  UNL1        0.2898
     22 O         141.0741  142.9751  168.3685 O.3     1  UNL1       -0.4628
     23 H         139.4208  140.2171  170.7214 H       1  UNL1        0.1565
     24 C         141.1113  138.6316  159.7390 C.3     1  UNL1        0.0319
     25 C         141.3265  140.0650  159.3528 C.3     1  UNL1        0.0304
     26 C         140.1536  144.8075  163.6982 C.3     1  UNL1        0.0327
     27 C         140.9393  143.7228  163.0230 C.ar    1  UNL1        0.0001
     28 C         142.3173  143.3822  163.5078 C.ar    1  UNL1        0.0352
     29 C         143.1032  142.2975  162.8326 C.ar    1  UNL1        0.1860
     30 N         142.5110  141.5533  161.6726 N.ar    1  UNL1       -0.2261
     31 C         141.1328  141.8939  161.1879 C.ar    1  UNL1        0.0961
     32 C         140.5406  141.1497  160.0279 C.ar    1  UNL1       -0.0014
     33 C         139.1626  141.4903  159.5432 C.ar    1  UNL1        0.0179
     34 C         138.3768  142.5750  160.2184 C.ar    1  UNL1        0.0986
     35 N         138.9691  143.3192  161.3783 N.ar    1  UNL1       -0.2427
     36 C         140.3471  142.9786  161.8631 C.ar    1  UNL1        0.0947
     37 S         144.4812  141.9569  163.3173 S.O2    1  UNL1        0.0268
     38 C         145.8593  141.6164  163.8021 C.3     1  UNL1        0.1834
     39 O         144.5454  143.2629  164.0523 O.2     1  UNL1       -0.1671
     40 O         144.4170  140.6509  162.5824 O.2     1  UNL1       -0.1671
@<TRIPOS>BOND
     1    26    27    1
     2    27    28   ar
     3    28    29   ar
     4    29    37    1
     5    37    38    1
     6    37    39    2
     7    37    40    2
     8    29    30   ar
     9    30    31   ar
    10    31    32   ar
    11    32    25    1
    12    25    24    1
    13    24     1    1
    14     1     2    1
    15     2     3    1
    16     3     4    1
    17     4     9    1
    18     9    11    1
    19    11    12    1
    20    12    13   ar
    21    13    14   ar
    22    14    15   ar
    23    15    16   ar
    24    16    17   ar
    25    16    18    1
    26    18    19   am
    27    19    20    2
    28    19    21    1
    29    21    22    1
    30     4     5    1
    31     5     6    1
    32     4     7    1
    33     7     8    1
    34    32    33   ar
    35    33    34   ar
    36    34    35   ar
    37    35    36   ar
    38    36    27   ar
    39    36    31   ar
    40     6     1    1
    41     8     1    1
    42    17    12   ar
    43    22    15    1
    44     9    10    1
    45    18    23    1
@<TRIPOS>MOLECULE
*****
 40 45 0 0 0
SMALL
GASTEIGER

@<TRIPOS>ATOM
      1 C         138.0223  140.4853  161.6144 C.3     1  UNL1        0.0932
      2 C         138.7486  141.5768  160.8855 C.3     1  UNL1        0.0286
      3 C         138.8813  142.9350  161.5081 C.3     1  UNL1        0.0193
      4 C         138.2877  143.2018  162.8595 C.3     1  UNL1        0.0700
      5 C         137.5613  142.1105  163.5884 C.3     1  UNL1        0.0193
      6 C         137.4286  140.7522  162.9658 C.3     1  UNL1        0.0286
      7 C         138.1893  142.4416  162.5588 C.3     1  UNL1        0.1562
      8 O         138.0694  141.2135  161.9959 O.3     1  UNL1       -0.3572
      9 N         138.4203  144.5600  163.4820 N.3     1  UNL1       -0.2926
     10 H         137.6261  144.6741  164.1119 H       1  UNL1        0.1236
     11 C         139.6497  144.9081  164.2679 C.3     1  UNL1        0.1152
     12 C         140.4442  143.8253  164.9361 C.ar    1  UNL1        0.0765
     13 C         141.7850  143.4331  164.3899 C.ar    1  UNL1        0.0193
     14 C         142.5795  142.3504  165.0581 C.ar    1  UNL1        0.0411
     15 C         142.0331  141.6598  166.2725 C.ar    1  UNL1        0.1708
     16 C         140.6923  142.0521  166.8187 C.ar    1  UNL1        0.1682
     17 N         139.8978  143.1349  166.1505 N.ar    1  UNL1       -0.2304
     18 N         140.1459  141.3616  168.0331 N.am    1  UNL1       -0.2639
     19 C         140.9404  140.2789  168.7013 C.2     1  UNL1        0.2718
     20 O         140.3940  139.5884  169.9157 O.2     1  UNL1       -0.2707
     21 C         142.2812  139.8866  168.1551 C.3     1  UNL1        0.2898
     22 O         142.8276  140.5771  166.9407 O.3     1  UNL1       -0.4628
     23 H         139.2659  141.6191  168.3915 H       1  UNL1        0.1565
     24 C         137.8896  139.1271  160.9918 C.3     1  UNL1        0.0319
     25 C         139.0167  138.1425  161.0928 C.3     1  UNL1        0.0304
     26 C         144.6330  139.3321  164.2219 C.3     1  UNL1        0.0327
     27 C         143.6922  139.2781  163.0549 C.ar    1  UNL1        0.0001
     28 C         144.1484  139.7378  161.7019 C.ar    1  UNL1        0.0352
     29 C         143.2075  139.6837  160.5348 C.ar    1  UNL1        0.1860
     30 N         141.8106  139.1700  160.7208 N.ar    1  UNL1       -0.2261
     31 C         141.3545  138.7103  162.0739 C.ar    1  UNL1        0.0961
     32 C         139.9575  138.1965  162.2599 C.ar    1  UNL1       -0.0014
     33 C         139.5014  137.7368  163.6128 C.ar    1  UNL1        0.0179
     34 C         140.4422  137.7909  164.7798 C.ar    1  UNL1        0.0986
     35 N         141.8392  138.3046  164.5938 N.ar    1  UNL1       -0.2427
     36 C         142.2953  138.7643  163.2409 C.ar    1  UNL1        0.0947
     37 S         143.6637  140.1434  159.1819 S.O2    1  UNL1        0.0268
     38 C         144.1198  140.6031  157.8288 C.3     1  UNL1        0.1834
     39 O         143.4640  138.7577  158.6437 O.2     1  UNL1       -0.1671
     40 O         143.8634  141.5292  159.7201 O.2     1  UNL1       -0.1671
@<TRIPOS>BOND
     1    26    27    1
     2    27    28   ar
     3    28    29   ar
     4    29    37    1
     5    37    38    1
     6    37    39    2
     7    37    40    2
     8    29    30   ar
     9    30    31   ar
    10    31    32   ar
    11    32    25    1
    12    25    24    1
    13    24     1    1
    14     1     2    1
    15     2     3    1
    16     3     4    1
    17     4     9    1
    18     9    11    1
    19    11    12    1
    20    12    13   ar
    21    13    14   ar
    22    14    15   ar
    23    15    16   ar
    24    16    17   ar
    25    16    18    1
    26    18    19   am
    27    19    20    2
    28    19    21    1
    29    21    22    1
    30     4     5    1
    31     5     6    1
    32     4     7    1
    33     7     8    1
    34    32    33   ar
    35    33    34   ar
    36    34    35   ar
    37    35    36   ar
    38    36    27   ar
    39    36    31   ar
    40     6     1    1
    41     8     1    1
    42    17    12   ar
    43    22    15    1
    44     9    10    1
    45    18    23    1
@<TRIPOS>MOLECULE
*****
 40 45 0 0 0
SMALL
GASTEIGER

@<TRIPOS>ATOM
      1 C         141.7226  144.7025  163.4573 C.3     1  UNL1        0.0932
      2 C         141.4152  144.4405  162.0126 C.3     1  UNL1        0.0286
      3 C         140.1064  143.8188  161.6251 C.3     1  UNL1        0.0193
      4 C         139.1048  143.4589  162.6822 C.3     1  UNL1        0.0700
      5 C         139.4121  143.7208  164.1268 C.3     1  UNL1        0.0193
      6 C         140.7210  144.3427  164.5144 C.3     1  UNL1        0.0286
      7 C         139.8085  143.7977  162.9431 C.3     1  UNL1        0.1562
      8 O         140.9920  144.3599  163.2935 O.3     1  UNL1       -0.3572
      9 N         137.7960  142.8371  162.2946 N.3     1  UNL1       -0.2926
     10 H         137.6204  143.1007  161.3250 H       1  UNL1        0.1236
     11 C         137.6182  141.3500  162.3781 C.3     1  UNL1        0.1152
     12 C         138.8065  140.4441  162.2470 C.ar    1  UNL1        0.0765
     13 C         139.3041  139.6825  163.4397 C.ar    1  UNL1        0.0193
     14 C         140.4924  138.7766  163.3086 C.ar    1  UNL1        0.0411
     15 C         141.1832  138.6322  161.9849 C.ar    1  UNL1        0.1708
     16 C         140.6855  139.3938  160.7923 C.ar    1  UNL1        0.1682
     17 N         139.4972  140.2998  160.9234 N.ar    1  UNL1       -0.2304
     18 N         141.3762  139.2495  159.4687 N.am    1  UNL1       -0.2639
     19 C         142.5646  138.3436  159.3376 C.2     1  UNL1        0.2718
     20 O         143.2553  138.1993  158.0140 O.2     1  UNL1       -0.2707
     21 C         143.0622  137.5820  160.5302 C.3     1  UNL1        0.2898
     22 O         142.3715  137.7263  161.8539 O.3     1  UNL1       -0.4628
     23 H         141.0496  139.7494  158.6859 H       1  UNL1        0.1565
     24 C         143.0315  145.3243  163.8448 C.3     1  UNL1        0.0319
     25 C         144.1254  144.4733  164.4186 C.3     1  UNL1        0.0304
     26 C         143.1831  138.1467  165.7736 C.3     1  UNL1        0.0327
     27 C         143.1720  139.6251  166.0267 C.ar    1  UNL1        0.0001
     28 C         142.6732  140.1578  167.3372 C.ar    1  UNL1        0.0352
     29 C         142.6621  141.6363  167.5904 C.ar    1  UNL1        0.1860
     30 N         143.1499  142.5820  166.5331 N.ar    1  UNL1       -0.2261
     31 C         143.6487  142.0492  165.2226 C.ar    1  UNL1        0.0961
     32 C         144.1365  142.9948  164.1653 C.ar    1  UNL1       -0.0014
     33 C         144.6353  142.4621  162.8549 C.ar    1  UNL1        0.0179
     34 C         144.6463  140.9837  162.6017 C.ar    1  UNL1        0.0986
     35 N         144.1586  140.0380  163.6590 N.ar    1  UNL1       -0.2427
     36 C         143.6598  140.5707  164.9695 C.ar    1  UNL1        0.0947
     37 S         142.1633  142.1691  168.9009 S.O2    1  UNL1        0.0268
     38 C         141.6646  142.7019  170.2114 C.3     1  UNL1        0.1834
     39 O         143.5149  142.7586  169.1757 O.2     1  UNL1       -0.1671
     40 O         140.8117  141.5796  168.6261 O.2     1  UNL1       -0.1671
@<TRIPOS>BOND
     1    26    27    1
     2    27    28   ar
     3    28    29   ar
     4    29    37    1
     5    37    38    1
     6    37    39    2
     7    37    40    2
     8    29    30   ar
     9    30    31   ar
    10    31    32   ar
    11    32    25    1
    12    25    24    1
    13    24     1    1
    14     1     2    1
    15     2     3    1
    16     3     4    1
    17     4     9    1
    18     9    11    1
    19    11    12    1
    20    12    13   ar
    21    13    14   ar
    22    14    15   ar
    23    15    16   ar
    24    16    17   ar
    25    16    18    1
    26    18    19   am
    27    19    20    2
    28    19    21    1
    29    21    22    1
    30     4     5    1
    31     5     6    1
    32     4     7    1
    33     7     8    1
    34    32    33   ar
    35    33    34   ar
    36    34    35   ar
    37    35    36   ar
    38    36    27   ar
    39    36    31   ar
    40     6     1    1
    41     8     1    1
    42    17    12   ar
    43    22    15    1
    44     9    10    1
    45    18    23    1
@<TRIPOS>MOLECULE
*****
 40 45 0 0 0
SMALL
GASTEIGER

@<TRIPOS>ATOM
      1 C         139.1376  143.2821  165.0272 C.3     1  UNL1        0.0932
      2 C         138.0547  142.4391  164.4217 C.3     1  UNL1        0.0286
      3 C         138.0139  140.9640  164.6905 C.3     1  UNL1        0.0193
      4 C         139.0559  140.3318  165.5649 C.3     1  UNL1        0.0700
      5 C         140.1388  141.1748  166.1704 C.3     1  UNL1        0.0193
      6 C         140.1796  142.6500  165.9016 C.3     1  UNL1        0.0286
      7 C         139.1196  141.1442  165.4463 C.3     1  UNL1        0.1562
      8 O         139.1565  142.4780  165.2032 O.3     1  UNL1       -0.3572
      9 N         139.0151  138.8567  165.8337 N.3     1  UNL1       -0.2926
     10 H         138.0429  138.5656  165.7317 H       1  UNL1        0.1236
     11 C         139.8376  137.9193  165.0000 C.3     1  UNL1        0.1152
     12 C         139.8860  138.0866  163.5102 C.ar    1  UNL1        0.0765
     13 C         138.6291  137.9648  162.7006 C.ar    1  UNL1        0.0193
     14 C         138.6775  138.1321  161.2108 C.ar    1  UNL1        0.0411
     15 C         139.9828  138.4212  160.5305 C.ar    1  UNL1        0.1708
     16 C         141.2397  138.5431  161.3401 C.ar    1  UNL1        0.1682
     17 N         141.1912  138.3758  162.8300 N.ar    1  UNL1       -0.2304
     18 N         142.5449  138.8322  160.6599 N.am    1  UNL1       -0.2639
     19 C         142.5934  138.9995  159.1700 C.2     1  UNL1        0.2718
     20 O         143.8986  139.2887  158.4898 O.2     1  UNL1       -0.2707
     21 C         141.3365  138.8777  158.3604 C.3     1  UNL1        0.2898
     22 O         140.0312  138.5885  159.0407 O.3     1  UNL1       -0.4628
     23 H         143.3698  138.9122  161.1913 H       1  UNL1        0.1565
     24 C         139.1784  144.7573  164.7584 C.3     1  UNL1        0.0319
     25 C         139.7210  145.2676  163.4564 C.3     1  UNL1        0.0304
     26 C         144.3005  142.6053  159.6237 C.3     1  UNL1        0.0327
     27 C         142.9132  142.9776  160.0555 C.ar    1  UNL1        0.0001
     28 C         141.7345  142.5773  159.2187 C.ar    1  UNL1        0.0352
     29 C         140.3470  142.9496  159.6505 C.ar    1  UNL1        0.1860
     30 N         140.1383  143.7223  160.9191 N.ar    1  UNL1       -0.2261
     31 C         141.3171  144.1226  161.7560 C.ar    1  UNL1        0.0961
     32 C         141.1085  144.8953  163.0246 C.ar    1  UNL1       -0.0014
     33 C         142.2872  145.2956  163.8614 C.ar    1  UNL1        0.0179
     34 C         143.6746  144.9233  163.4296 C.ar    1  UNL1        0.0986
     35 N         143.8832  144.1506  162.1610 N.ar    1  UNL1       -0.2427
     36 C         142.7045  143.7503  161.3242 C.ar    1  UNL1        0.0947
     37 S         139.1683  142.5493  158.8137 S.O2    1  UNL1        0.0268
     38 C         137.9895  142.1489  157.9767 C.3     1  UNL1        0.1834
     39 O         140.0924  142.1606  157.6979 O.2     1  UNL1       -0.1671
     40 O         138.2442  142.9379  159.9294 O.2     1  UNL1       -0.1671
@<TRIPOS>BOND
     1    26    27    1
     2    27    28   ar
     3    28    29   ar
     4    29    37    1
     5    37    38    1
     6    37    39    2
     7    37    40    2
     8    29    30   ar
     9    30    31   ar
    10    31    32   ar
    11    32    25    1
    12    25    24    1
    13    24     1    1
    14     1     2    1
    15     2     3    1
    16     3     4    1
    17     4     9    1
    18     9    11    1
    19    11    12    1
    20    12    13   ar
    21    13    14   ar
    22    14    15   ar
    23    15    16   ar
    24    16    17   ar
    25    16    18    1
    26    18    19   am
    27    19    20    2
    28    19    21    1
    29    21    22    1
    30     4     5    1
    31     5     6    1
    32     4     7    1
    33     7     8    1
    34    32    33   ar
    35    33    34   ar
    36    34    35   ar
    37    35    36   ar
    38    36    27   ar
    39    36    31   ar
    40     6     1    1
    41     8     1    1
    42    17    12   ar
    43    22    15    1
    44     9    10    1
    45    18    23    1
