@<TRIPOS>MOLECULE
*****
 38 41 0 0 0
SMALL
GASTEIGER

@<TRIPOS>ATOM
      1 N         141.0717  140.3209  164.1148 N.ar    1  UNL1       -0.1967
      2 N         141.2996  141.5281  164.9754 N.ar    1  UNL1       -0.1666
      3 C         140.4260  141.4041  166.1884 C.ar    1  UNL1        0.0850
      4 C         139.6582  140.1203  166.0775 C.ar    1  UNL1        0.0342
      5 C         138.6472  139.4745  166.9779 C.ar    1  UNL1        0.0141
      6 C         138.0354  138.1591  166.5967 C.ar    1  UNL1        0.0578
      7 CL        137.0243  137.5132  167.4971 Cl      1  UNL1       -0.0822
      8 C         138.4345  137.4896  165.3151 C.ar    1  UNL1        0.0129
      9 C         139.4454  138.1354  164.4147 C.ar    1  UNL1        0.0202
     10 C         140.0573  139.4508  164.7959 C.ar    1  UNL1        0.0871
     11 C         143.0790  139.4604  160.1802 C.ar    1  UNL1        0.1161
     12 C         143.1902  138.4792  161.3093 C.ar    1  UNL1        0.1449
     13 N         143.9704  137.2112  161.1269 N.pl3   1  UNL1       -0.3415
     14 N         142.5211  138.7661  162.6208 N.ar    1  UNL1       -0.1941
     15 C         141.7408  140.0340  162.8033 C.ar    1  UNL1        0.2554
     16 N         141.6297  141.0153  161.6741 N.ar    1  UNL1       -0.1941
     17 C         142.2988  140.7284  160.3626 C.ar    1  UNL1        0.1449
     18 N         142.1876  141.7097  159.2336 N.pl3   1  UNL1       -0.3415
     19 H         144.4096  137.0229  160.2661 H       1  UNL1        0.1438
     20 H         144.0434  136.5672  161.8680 H       1  UNL1        0.1438
     21 H         141.6754  142.5419  159.3533 H       1  UNL1        0.1438
     22 H         142.6267  141.5214  158.3728 H       1  UNL1        0.1438
     23 C         143.0094  138.4278  157.7971 C.2     1  UNL1        0.4056
     24 O         141.6017  137.9690  158.0371 O.2     1  UNL1       -0.2261
     25 N         143.7481  139.1735  158.8687 N.am    1  UNL1       -0.2452
     26 H         144.6721  139.4747  158.7112 H       1  UNL1        0.1584
     27 C         143.6849  136.7452  155.9363 C.3     1  UNL1        0.2574
     28 O         143.6786  138.1410  156.4856 O.3     1  UNL1       -0.4304
     29 C         140.3360  142.3908  167.3146 C.3     1  UNL1        0.0785
     30 C         141.0834  142.1420  168.5913 C.ar    1  UNL1        0.0410
     31 C         140.3511  141.6548  169.8063 C.ar    1  UNL1        0.1388
     32 F         138.8715  141.4162  169.7447 F       1  UNL1       -0.2044
     33 C         141.0984  141.4060  171.0828 C.ar    1  UNL1        0.0318
     34 C         142.5781  141.6445  171.1443 C.ar    1  UNL1        0.0342
     35 C         143.3103  142.1318  169.9293 C.ar    1  UNL1        0.1672
     36 F         144.7900  142.3704  169.9907 F       1  UNL1       -0.2018
     37 C         142.5630  142.3806  168.6527 C.ar    1  UNL1        0.1659
     38 F         143.2953  142.8679  167.4377 F       1  UNL1       -0.2020
@<TRIPOS>BOND
     1    27    28    1
     2    28    23    1
     3    23    24    2
     4    23    25   am
     5    25    11    1
     6    11    12   ar
     7    12    13    1
     8    12    14   ar
     9    14    15   ar
    10    15     1    1
    11     1     2   ar
    12     2     3   ar
    13     3    29    1
    14    29    30    1
    15    30    31   ar
    16    31    32    1
    17    31    33   ar
    18    33    34   ar
    19    34    35   ar
    20    35    36    1
    21    35    37   ar
    22    37    38    1
    23     3     4   ar
    24     4     5   ar
    25     5     6   ar
    26     6     7    1
    27     6     8   ar
    28     8     9   ar
    29     9    10   ar
    30    15    16   ar
    31    16    17   ar
    32    17    18    1
    33    17    11   ar
    34    10     1   ar
    35    37    30   ar
    36    10     4   ar
    37    25    26    1
    38    13    19    1
    39    13    20    1
    40    18    21    1
    41    18    22    1
@<TRIPOS>MOLECULE
*****
 38 41 0 0 0
SMALL
GASTEIGER

@<TRIPOS>ATOM
      1 N         141.1257  140.4661  164.0592 N.ar    1  UNL1       -0.1967
      2 N         141.3197  141.6487  164.9614 N.ar    1  UNL1       -0.1666
      3 C         140.4452  141.4613  166.1656 C.ar    1  UNL1        0.0850
      4 C         139.7108  140.1629  166.0077 C.ar    1  UNL1        0.0342
      5 C         138.7135  139.4612  166.8811 C.ar    1  UNL1        0.0141
      6 C         138.1368  138.1445  166.4527 C.ar    1  UNL1        0.0578
      7 CL        137.1394  137.4428  167.3262 Cl      1  UNL1       -0.0822
      8 C         138.5574  137.5294  165.1509 C.ar    1  UNL1        0.0129
      9 C         139.5547  138.2311  164.2775 C.ar    1  UNL1        0.0202
     10 C         140.1314  139.5478  164.7059 C.ar    1  UNL1        0.0871
     11 C         143.1684  139.7914  160.1066 C.ar    1  UNL1        0.1161
     12 C         142.1418  140.8763  160.2448 C.ar    1  UNL1        0.1449
     13 N         141.7961  141.7363  159.0655 N.pl3   1  UNL1       -0.3415
     14 N         141.4609  141.1012  161.5624 N.ar    1  UNL1       -0.1941
     15 C         141.8066  140.2412  162.7417 C.ar    1  UNL1        0.2554
     16 N         142.8332  139.1563  162.6035 N.ar    1  UNL1       -0.1941
     17 C         143.5141  138.9314  161.2860 C.ar    1  UNL1        0.1449
     18 N         144.5406  137.8465  161.1478 N.pl3   1  UNL1       -0.3415
     19 H         142.2429  141.5887  158.2008 H       1  UNL1        0.1438
     20 H         141.1223  142.4484  159.1562 H       1  UNL1        0.1438
     21 H         144.7675  137.2820  161.9219 H       1  UNL1        0.1438
     22 H         144.9875  137.6988  160.2831 H       1  UNL1        0.1438
     23 C         143.2125  138.6840  157.7568 C.2     1  UNL1        0.4056
     24 O         141.8949  138.0263  158.0421 O.2     1  UNL1       -0.2261
     25 N         143.8492  139.5665  158.7891 N.am    1  UNL1       -0.2452
     26 H         144.7140  139.9982  158.6019 H       1  UNL1        0.1584
     27 C         143.7168  137.1568  155.7164 C.3     1  UNL1        0.2574
     28 O         143.8934  138.4591  156.4393 O.3     1  UNL1       -0.4304
     29 C         140.3260  142.4063  167.3243 C.3     1  UNL1        0.0785
     30 C         141.0678  142.1285  168.5982 C.ar    1  UNL1        0.0410
     31 C         140.3308  141.6111  169.7977 C.ar    1  UNL1        0.1388
     32 F         138.8518  141.3715  169.7235 F       1  UNL1       -0.2044
     33 C         141.0725  141.3332  171.0715 C.ar    1  UNL1        0.0318
     34 C         142.5514  141.5728  171.1457 C.ar    1  UNL1        0.0342
     35 C         143.2884  142.0903  169.9462 C.ar    1  UNL1        0.1672
     36 F         144.7673  142.3299  170.0204 F       1  UNL1       -0.2018
     37 C         142.5467  142.3681  168.6724 C.ar    1  UNL1        0.1659
     38 F         143.2838  142.8855  167.4728 F       1  UNL1       -0.2020
@<TRIPOS>BOND
     1    27    28    1
     2    28    23    1
     3    23    24    2
     4    23    25   am
     5    25    11    1
     6    11    12   ar
     7    12    13    1
     8    12    14   ar
     9    14    15   ar
    10    15     1    1
    11     1     2   ar
    12     2     3   ar
    13     3    29    1
    14    29    30    1
    15    30    31   ar
    16    31    32    1
    17    31    33   ar
    18    33    34   ar
    19    34    35   ar
    20    35    36    1
    21    35    37   ar
    22    37    38    1
    23     3     4   ar
    24     4     5   ar
    25     5     6   ar
    26     6     7    1
    27     6     8   ar
    28     8     9   ar
    29     9    10   ar
    30    15    16   ar
    31    16    17   ar
    32    17    18    1
    33    17    11   ar
    34    10     1   ar
    35    37    30   ar
    36    10     4   ar
    37    25    26    1
    38    13    19    1
    39    13    20    1
    40    18    21    1
    41    18    22    1
@<TRIPOS>MOLECULE
*****
 38 41 0 0 0
SMALL
GASTEIGER

@<TRIPOS>ATOM
      1 N         141.2221  142.8453  163.9689 N.ar    1  UNL1       -0.1967
      2 N         142.2821  142.9526  165.0247 N.ar    1  UNL1       -0.1666
      3 C         141.9302  142.0047  166.1327 C.ar    1  UNL1        0.0850
      4 C         140.6528  141.3116  165.7617 C.ar    1  UNL1        0.0342
      5 C         139.8315  140.2745  166.4688 C.ar    1  UNL1        0.0141
      6 C         138.5726  139.7570  165.8385 C.ar    1  UNL1        0.0578
      7 CL        137.7514  138.7198  166.5456 Cl      1  UNL1       -0.0822
      8 C         138.1350  140.2765  164.5012 C.ar    1  UNL1        0.0129
      9 C         138.9562  141.3136  163.7941 C.ar    1  UNL1        0.0202
     10 C         140.2151  141.8311  164.4243 C.ar    1  UNL1        0.0871
     11 C         141.0866  145.1597  160.1120 C.ar    1  UNL1        0.1161
     12 C         140.1508  145.5106  161.2305 C.ar    1  UNL1        0.1449
     13 N         139.1698  146.6330  161.0634 N.pl3   1  UNL1       -0.3415
     14 N         140.1960  144.7391  162.5161 N.ar    1  UNL1       -0.1941
     15 C         141.1769  143.6168  162.6833 C.ar    1  UNL1        0.2554
     16 N         142.1128  143.2658  161.5647 N.ar    1  UNL1       -0.1941
     17 C         142.0676  144.0373  160.2791 C.ar    1  UNL1        0.1449
     18 N         143.0034  143.6863  159.1606 N.pl3   1  UNL1       -0.3415
     19 H         139.1402  147.1393  160.2196 H       1  UNL1        0.1438
     20 H         138.5556  146.8633  161.7975 H       1  UNL1        0.1438
     21 H         143.6473  142.9497  159.2704 H       1  UNL1        0.1438
     22 H         142.9738  144.1926  158.3168 H       1  UNL1        0.1438
     23 C         140.2581  145.4024  157.6615 C.2     1  UNL1        0.4056
     24 O         139.5200  144.1022  157.7823 O.2     1  UNL1       -0.2261
     25 N         141.0415  145.9312  158.8264 N.am    1  UNL1       -0.2452
     26 H         141.5260  146.7845  158.7471 H       1  UNL1        0.1584
     27 C         138.9029  146.6837  155.8528 C.3     1  UNL1        0.2574
     28 O         140.2130  146.1740  156.3759 O.3     1  UNL1       -0.4304
     29 C         142.7176  141.7879  167.3909 C.3     1  UNL1        0.0785
     30 C         142.0236  141.3355  168.6415 C.ar    1  UNL1        0.0410
     31 C         142.1742  139.9193  169.1123 C.ar    1  UNL1        0.1388
     32 F         143.0189  138.9556  168.3326 F       1  UNL1       -0.2044
     33 C         141.4803  139.4668  170.3628 C.ar    1  UNL1        0.0318
     34 C         140.6356  140.4305  171.1424 C.ar    1  UNL1        0.0342
     35 C         140.4850  141.8467  170.6715 C.ar    1  UNL1        0.1672
     36 F         139.6404  142.8105  171.4511 F       1  UNL1       -0.2018
     37 C         141.1790  142.2992  169.4211 C.ar    1  UNL1        0.1659
     38 F         141.0283  143.7154  168.9502 F       1  UNL1       -0.2020
@<TRIPOS>BOND
     1    27    28    1
     2    28    23    1
     3    23    24    2
     4    23    25   am
     5    25    11    1
     6    11    12   ar
     7    12    13    1
     8    12    14   ar
     9    14    15   ar
    10    15     1    1
    11     1     2   ar
    12     2     3   ar
    13     3    29    1
    14    29    30    1
    15    30    31   ar
    16    31    32    1
    17    31    33   ar
    18    33    34   ar
    19    34    35   ar
    20    35    36    1
    21    35    37   ar
    22    37    38    1
    23     3     4   ar
    24     4     5   ar
    25     5     6   ar
    26     6     7    1
    27     6     8   ar
    28     8     9   ar
    29     9    10   ar
    30    15    16   ar
    31    16    17   ar
    32    17    18    1
    33    17    11   ar
    34    10     1   ar
    35    37    30   ar
    36    10     4   ar
    37    25    26    1
    38    13    19    1
    39    13    20    1
    40    18    21    1
    41    18    22    1
@<TRIPOS>MOLECULE
*****
 38 41 0 0 0
SMALL
GASTEIGER

@<TRIPOS>ATOM
      1 N         140.2343  142.6345  164.4785 N.ar    1  UNL1       -0.1967
      2 N         140.3832  143.1126  165.8925 N.ar    1  UNL1       -0.1666
      3 C         139.9629  141.9988  166.8050 C.ar    1  UNL1        0.0850
      4 C         139.5542  140.8324  165.9550 C.ar    1  UNL1        0.0342
      5 C         139.0510  139.4632  166.3046 C.ar    1  UNL1        0.0141
      6 C         138.7156  138.4870  165.2163 C.ar    1  UNL1        0.0578
      7 CL        138.2124  137.1178  165.5659 Cl      1  UNL1       -0.0822
      8 C         138.8833  138.8799  163.7784 C.ar    1  UNL1        0.0129
      9 C         139.3865  140.2491  163.4289 C.ar    1  UNL1        0.0202
     10 C         139.7220  141.2253  164.5172 C.ar    1  UNL1        0.0871
     11 C         141.1618  145.0109  160.7713 C.ar    1  UNL1        0.1161
     12 C         142.0273  143.8464  161.1518 C.ar    1  UNL1        0.1449
     13 N         143.2020  143.4741  160.2966 N.pl3   1  UNL1       -0.3415
     14 N         141.7181  143.0543  162.3876 N.ar    1  UNL1       -0.1941
     15 C         140.5435  143.4266  163.2428 C.ar    1  UNL1        0.2554
     16 N         139.6779  144.5912  162.8623 N.ar    1  UNL1       -0.1941
     17 C         139.9871  145.3833  161.6265 C.ar    1  UNL1        0.1449
     18 N         139.1215  146.5478  161.2461 N.pl3   1  UNL1       -0.3415
     19 H         143.4049  143.9940  159.4856 H       1  UNL1        0.1438
     20 H         143.7701  142.7098  160.5464 H       1  UNL1        0.1438
     21 H         138.3505  146.7921  161.8075 H       1  UNL1        0.1438
     22 H         139.3244  147.0677  160.4351 H       1  UNL1        0.1438
     23 C         140.8266  145.4393  158.2308 C.2     1  UNL1        0.4056
     24 O         139.8731  144.2834  158.1618 O.2     1  UNL1       -0.2261
     25 N         141.4709  145.8030  159.5356 N.am    1  UNL1       -0.2452
     26 H         142.0968  146.5617  159.5810 H       1  UNL1        0.1584
     27 C         140.0546  146.5118  155.9940 C.3     1  UNL1        0.2574
     28 O         141.1358  146.2314  156.9951 O.3     1  UNL1       -0.4304
     29 C         139.9530  142.0435  168.3043 C.3     1  UNL1        0.0785
     30 C         141.2417  141.9473  169.0661 C.ar    1  UNL1        0.0410
     31 C         142.0077  140.6578  169.0841 C.ar    1  UNL1        0.1388
     32 F         141.4851  139.4646  168.3403 F       1  UNL1       -0.2044
     33 C         143.2963  140.5615  169.8458 C.ar    1  UNL1        0.0318
     34 C         143.8188  141.7547  170.5895 C.ar    1  UNL1        0.0342
     35 C         143.0528  143.0442  170.5715 C.ar    1  UNL1        0.1672
     36 F         143.5753  144.2375  171.3152 F       1  UNL1       -0.2018
     37 C         141.7642  143.1405  169.8098 C.ar    1  UNL1        0.1659
     38 F         140.9981  144.4300  169.7918 F       1  UNL1       -0.2020
@<TRIPOS>BOND
     1    27    28    1
     2    28    23    1
     3    23    24    2
     4    23    25   am
     5    25    11    1
     6    11    12   ar
     7    12    13    1
     8    12    14   ar
     9    14    15   ar
    10    15     1    1
    11     1     2   ar
    12     2     3   ar
    13     3    29    1
    14    29    30    1
    15    30    31   ar
    16    31    32    1
    17    31    33   ar
    18    33    34   ar
    19    34    35   ar
    20    35    36    1
    21    35    37   ar
    22    37    38    1
    23     3     4   ar
    24     4     5   ar
    25     5     6   ar
    26     6     7    1
    27     6     8   ar
    28     8     9   ar
    29     9    10   ar
    30    15    16   ar
    31    16    17   ar
    32    17    18    1
    33    17    11   ar
    34    10     1   ar
    35    37    30   ar
    36    10     4   ar
    37    25    26    1
    38    13    19    1
    39    13    20    1
    40    18    21    1
    41    18    22    1
@<TRIPOS>MOLECULE
*****
 38 41 0 0 0
SMALL
GASTEIGER

@<TRIPOS>ATOM
      1 N         139.7825  138.7330  160.5464 N.ar    1  UNL1       -0.1967
      2 N         139.8212  137.8024  161.7222 N.ar    1  UNL1       -0.1666
      3 C         139.2888  138.5400  162.9148 C.ar    1  UNL1        0.0850
      4 C         138.9211  139.9265  162.4762 C.ar    1  UNL1        0.0342
      5 C         138.3478  141.0958  163.2205 C.ar    1  UNL1        0.0141
      6 C         138.0797  142.3844  162.5010 C.ar    1  UNL1        0.0578
      7 CL        137.5064  143.5538  163.2453 Cl      1  UNL1       -0.0822
      8 C         138.3848  142.5036  161.0372 C.ar    1  UNL1        0.0129
      9 C         138.9581  141.3343  160.2929 C.ar    1  UNL1        0.0202
     10 C         139.2262  140.0458  161.0124 C.ar    1  UNL1        0.0871
     11 C         141.1034  137.7578  156.3566 C.ar    1  UNL1        0.1161
     12 C         142.1189  138.1315  157.3953 C.ar    1  UNL1        0.1449
     13 N         143.5748  138.1802  157.0374 N.pl3   1  UNL1       -0.3415
     14 N         141.6786  138.4566  158.7919 N.ar    1  UNL1       -0.1941
     15 C         140.2229  138.4079  159.1498 C.ar    1  UNL1        0.2554
     16 N         139.2072  138.0341  158.1111 N.ar    1  UNL1       -0.1941
     17 C         139.6475  137.7091  156.7145 C.ar    1  UNL1        0.1449
     18 N         138.6319  137.3353  155.6758 N.pl3   1  UNL1       -0.3415
     19 H         143.8638  137.9668  156.1208 H       1  UNL1        0.1438
     20 H         144.2414  138.4255  157.7192 H       1  UNL1        0.1438
     21 H         137.6764  137.3034  155.9108 H       1  UNL1        0.1438
     22 H         138.9209  137.1220  154.7592 H       1  UNL1        0.1438
     23 C         141.6879  136.0020  154.5329 C.2     1  UNL1        0.4056
     24 O         141.3917  134.8964  155.5024 O.2     1  UNL1       -0.2261
     25 N         141.5437  137.4327  154.9600 N.am    1  UNL1       -0.2452
     26 H         141.7381  138.1583  154.3237 H       1  UNL1        0.1584
     27 C         141.7900  134.3455  152.5340 C.3     1  UNL1        0.2574
     28 O         142.1282  135.6770  153.1363 O.3     1  UNL1       -0.4304
     29 C         139.1487  137.9881  164.3026 C.3     1  UNL1        0.0785
     30 C         139.8358  138.6647  165.4517 C.ar    1  UNL1        0.0410
     31 C         141.3311  138.7811  165.4682 C.ar    1  UNL1        0.1388
     32 F         142.1395  138.2209  164.3355 F       1  UNL1       -0.2044
     33 C         142.0182  139.4575  166.6172 C.ar    1  UNL1        0.0318
     34 C         141.2098  140.0176  167.7498 C.ar    1  UNL1        0.0342
     35 C         139.7144  139.9012  167.7333 C.ar    1  UNL1        0.1672
     36 F         138.9060  140.4613  168.8659 F       1  UNL1       -0.2018
     37 C         139.0274  139.2248  166.5843 C.ar    1  UNL1        0.1659
     38 F         137.5320  139.1084  166.5678 F       1  UNL1       -0.2020
@<TRIPOS>BOND
     1    27    28    1
     2    28    23    1
     3    23    24    2
     4    23    25   am
     5    25    11    1
     6    11    12   ar
     7    12    13    1
     8    12    14   ar
     9    14    15   ar
    10    15     1    1
    11     1     2   ar
    12     2     3   ar
    13     3    29    1
    14    29    30    1
    15    30    31   ar
    16    31    32    1
    17    31    33   ar
    18    33    34   ar
    19    34    35   ar
    20    35    36    1
    21    35    37   ar
    22    37    38    1
    23     3     4   ar
    24     4     5   ar
    25     5     6   ar
    26     6     7    1
    27     6     8   ar
    28     8     9   ar
    29     9    10   ar
    30    15    16   ar
    31    16    17   ar
    32    17    18    1
    33    17    11   ar
    34    10     1   ar
    35    37    30   ar
    36    10     4   ar
    37    25    26    1
    38    13    19    1
    39    13    20    1
    40    18    21    1
    41    18    22    1
@<TRIPOS>MOLECULE
*****
 38 41 0 0 0
SMALL
GASTEIGER

@<TRIPOS>ATOM
      1 N         142.3200  142.3337  162.8192 N.ar    1  UNL1       -0.1967
      2 N         143.0023  141.6391  163.9602 N.ar    1  UNL1       -0.1666
      3 C         142.2904  142.0169  165.2253 C.ar    1  UNL1        0.0850
      4 C         141.1681  142.9451  164.8662 C.ar    1  UNL1        0.0342
      5 C         140.1319  143.6373  165.7011 C.ar    1  UNL1        0.0141
      6 C         139.1140  144.5252  165.0490 C.ar    1  UNL1        0.0578
      7 CL        138.0778  145.2175  165.8840 Cl      1  UNL1       -0.0822
      8 C         139.1323  144.7211  163.5620 C.ar    1  UNL1        0.0129
      9 C         140.1685  144.0289  162.7270 C.ar    1  UNL1        0.0202
     10 C         141.1864  143.1409  163.3791 C.ar    1  UNL1        0.0871
     11 C         143.4715  142.0466  158.4785 C.ar    1  UNL1        0.1161
     12 C         143.0044  143.3544  159.0457 C.ar    1  UNL1        0.1449
     13 N         142.9212  144.5664  158.1659 N.pl3   1  UNL1       -0.3415
     14 N         142.6206  143.4500  160.4926 N.ar    1  UNL1       -0.1941
     15 C         142.7038  142.2381  161.3723 C.ar    1  UNL1        0.2554
     16 N         143.1709  140.9303  160.8052 N.ar    1  UNL1       -0.1941
     17 C         143.5548  140.8346  159.3583 C.ar    1  UNL1        0.1449
     18 N         144.0218  139.5268  158.7912 N.pl3   1  UNL1       -0.3415
     19 H         143.1731  144.5036  157.2162 H       1  UNL1        0.1438
     20 H         142.6147  145.4247  158.5381 H       1  UNL1        0.1438
     21 H         144.0764  138.7313  159.3687 H       1  UNL1        0.1438
     22 H         144.2737  139.4640  157.8416 H       1  UNL1        0.1438
     23 C         145.2652  142.2402  156.6089 C.2     1  UNL1        0.4056
     24 O         146.2912  142.6251  157.6332 O.2     1  UNL1       -0.2261
     25 N         143.8554  141.9509  157.0316 N.am    1  UNL1       -0.2452
     26 H         143.1819  141.6983  156.3593 H       1  UNL1        0.1584
     27 C         146.6918  143.0648  154.6003 C.3     1  UNL1        0.2574
     28 O         145.6490  142.1445  155.1620 O.3     1  UNL1       -0.4304
     29 C         142.6395  141.5488  166.6070 C.3     1  UNL1        0.0785
     30 C         141.5510  141.2494  167.5948 C.ar    1  UNL1        0.0410
     31 C         140.5257  140.1992  167.2856 C.ar    1  UNL1        0.1388
     32 F         140.5888  139.4483  165.9886 F       1  UNL1       -0.2044
     33 C         139.4373  139.8997  168.2734 C.ar    1  UNL1        0.0318
     34 C         139.3742  140.6507  169.5703 C.ar    1  UNL1        0.0342
     35 C         140.3996  141.7009  169.8795 C.ar    1  UNL1        0.1672
     36 F         140.3365  142.4518  171.1765 F       1  UNL1       -0.2018
     37 C         141.4880  142.0003  168.8918 C.ar    1  UNL1        0.1659
     38 F         142.5133  143.0506  169.2010 F       1  UNL1       -0.2020
@<TRIPOS>BOND
     1    27    28    1
     2    28    23    1
     3    23    24    2
     4    23    25   am
     5    25    11    1
     6    11    12   ar
     7    12    13    1
     8    12    14   ar
     9    14    15   ar
    10    15     1    1
    11     1     2   ar
    12     2     3   ar
    13     3    29    1
    14    29    30    1
    15    30    31   ar
    16    31    32    1
    17    31    33   ar
    18    33    34   ar
    19    34    35   ar
    20    35    36    1
    21    35    37   ar
    22    37    38    1
    23     3     4   ar
    24     4     5   ar
    25     5     6   ar
    26     6     7    1
    27     6     8   ar
    28     8     9   ar
    29     9    10   ar
    30    15    16   ar
    31    16    17   ar
    32    17    18    1
    33    17    11   ar
    34    10     1   ar
    35    37    30   ar
    36    10     4   ar
    37    25    26    1
    38    13    19    1
    39    13    20    1
    40    18    21    1
    41    18    22    1
@<TRIPOS>MOLECULE
*****
 38 41 0 0 0
SMALL
GASTEIGER

@<TRIPOS>ATOM
      1 N         142.3912  142.3276  162.6230 N.ar    1  UNL1       -0.1967
      2 N         143.0632  141.5761  163.7337 N.ar    1  UNL1       -0.1666
      3 C         142.3714  141.9291  165.0170 C.ar    1  UNL1        0.0850
      4 C         141.2718  142.8986  164.6994 C.ar    1  UNL1        0.0342
      5 C         140.2610  143.5890  165.5663 C.ar    1  UNL1        0.0141
      6 C         139.2624  144.5257  164.9536 C.ar    1  UNL1        0.0578
      7 CL        138.2516  145.2162  165.8206 Cl      1  UNL1       -0.0822
      8 C         139.2746  144.7720  163.4740 C.ar    1  UNL1        0.0129
      9 C         140.2854  144.0816  162.6071 C.ar    1  UNL1        0.0202
     10 C         141.2840  143.1449  163.2198 C.ar    1  UNL1        0.0871
     11 C         143.5014  142.1593  158.2653 C.ar    1  UNL1        0.1161
     12 C         143.0602  143.4557  158.8773 C.ar    1  UNL1        0.1449
     13 N         142.9890  144.6960  158.0368 N.pl3   1  UNL1       -0.3415
     14 N         142.6901  143.5117  160.3299 N.ar    1  UNL1       -0.1941
     15 C         142.7612  142.2715  161.1704 C.ar    1  UNL1        0.2554
     16 N         143.2025  140.9750  160.5584 N.ar    1  UNL1       -0.1941
     17 C         143.5726  140.9189  159.1058 C.ar    1  UNL1        0.1449
     18 N         144.0139  139.6225  158.4939 N.pl3   1  UNL1       -0.3415
     19 H         143.2319  144.6592  157.0834 H       1  UNL1        0.1438
     20 H         142.6993  145.5469  158.4385 H       1  UNL1        0.1438
     21 H         144.0606  138.8085  159.0456 H       1  UNL1        0.1438
     22 H         144.2568  139.5856  157.5405 H       1  UNL1        0.1438
     23 C         145.2959  142.3150  156.3930 C.2     1  UNL1        0.4056
     24 O         146.3502  142.5828  157.4257 O.2     1  UNL1       -0.2261
     25 N         143.8715  142.1032  156.8127 N.am    1  UNL1       -0.2452
     26 H         143.1795  141.9274  156.1349 H       1  UNL1        0.1584
     27 C         146.8176  143.0718  154.4279 C.3     1  UNL1        0.2574
     28 O         145.6659  142.2589  154.9403 O.3     1  UNL1       -0.4304
     29 C         142.7183  141.4046  166.3788 C.3     1  UNL1        0.0785
     30 C         141.6372  141.1820  167.3946 C.ar    1  UNL1        0.0410
     31 C         141.6622  141.9322  168.6932 C.ar    1  UNL1        0.1388
     32 F         142.7684  142.9050  168.9761 F       1  UNL1       -0.2044
     33 C         140.5812  141.7096  169.7090 C.ar    1  UNL1        0.0318
     34 C         139.4751  140.7368  169.4260 C.ar    1  UNL1        0.0342
     35 C         139.4500  139.9866  168.1274 C.ar    1  UNL1        0.1672
     36 F         138.3439  139.0137  167.8444 F       1  UNL1       -0.2018
     37 C         140.5311  140.2091  167.1116 C.ar    1  UNL1        0.1659
     38 F         140.5060  139.4589  165.8129 F       1  UNL1       -0.2020
@<TRIPOS>BOND
     1    27    28    1
     2    28    23    1
     3    23    24    2
     4    23    25   am
     5    25    11    1
     6    11    12   ar
     7    12    13    1
     8    12    14   ar
     9    14    15   ar
    10    15     1    1
    11     1     2   ar
    12     2     3   ar
    13     3    29    1
    14    29    30    1
    15    30    31   ar
    16    31    32    1
    17    31    33   ar
    18    33    34   ar
    19    34    35   ar
    20    35    36    1
    21    35    37   ar
    22    37    38    1
    23     3     4   ar
    24     4     5   ar
    25     5     6   ar
    26     6     7    1
    27     6     8   ar
    28     8     9   ar
    29     9    10   ar
    30    15    16   ar
    31    16    17   ar
    32    17    18    1
    33    17    11   ar
    34    10     1   ar
    35    37    30   ar
    36    10     4   ar
    37    25    26    1
    38    13    19    1
    39    13    20    1
    40    18    21    1
    41    18    22    1
@<TRIPOS>MOLECULE
*****
 38 41 0 0 0
SMALL
GASTEIGER

@<TRIPOS>ATOM
      1 N         142.6700  139.7168  158.7959 N.ar    1  UNL1       -0.1967
      2 N         142.5134  141.1954  158.5977 N.ar    1  UNL1       -0.1666
      3 C         142.9711  141.8820  159.8504 C.ar    1  UNL1        0.0850
      4 C         143.4105  140.8277  160.8228 C.ar    1  UNL1        0.0342
      5 C         143.9560  140.9134  162.2174 C.ar    1  UNL1        0.0141
      6 C         144.3154  139.6609  162.9603 C.ar    1  UNL1        0.0578
      7 CL        144.8609  139.7465  164.3550 Cl      1  UNL1       -0.0822
      8 C         144.1292  138.3227  162.3087 C.ar    1  UNL1        0.0129
      9 C         143.5837  138.2371  160.9140 C.ar    1  UNL1        0.0202
     10 C         143.2244  139.4896  160.1711 C.ar    1  UNL1        0.0871
     11 C         141.6545  136.5233  155.7925 C.ar    1  UNL1        0.1161
     12 C         143.0856  136.9103  156.0209 C.ar    1  UNL1        0.1449
     13 N         144.1782  136.2328  155.2481 N.pl3   1  UNL1       -0.3415
     14 N         143.4240  137.9748  157.0220 N.ar    1  UNL1       -0.1941
     15 C         142.3315  138.6523  157.7948 C.ar    1  UNL1        0.2554
     16 N         140.9003  138.2653  157.5664 N.ar    1  UNL1       -0.1941
     17 C         140.5619  137.2008  156.5653 C.ar    1  UNL1        0.1449
     18 N         139.1308  136.8138  156.3369 N.pl3   1  UNL1       -0.3415
     19 H         143.9560  135.5342  154.5910 H       1  UNL1        0.1438
     20 H         145.1175  136.4868  155.3980 H       1  UNL1        0.1438
     21 H         138.4137  137.2585  156.8442 H       1  UNL1        0.1438
     22 H         138.9086  136.1152  155.6799 H       1  UNL1        0.1438
     23 C         141.6644  134.0271  155.0721 C.2     1  UNL1        0.4056
     24 O         142.3512  133.6599  156.3541 O.2     1  UNL1       -0.2261
     25 N         141.3160  135.4588  154.7914 N.am    1  UNL1       -0.2452
     26 H         140.8652  135.6998  153.9500 H       1  UNL1        0.1584
     27 C         140.7651  131.6501  154.5323 C.3     1  UNL1        0.2574
     28 O         141.3259  132.9626  154.0709 O.3     1  UNL1       -0.4304
     29 C         142.9867  143.3628  160.0888 C.3     1  UNL1        0.0785
     30 C         142.3157  143.9341  161.3027 C.ar    1  UNL1        0.0410
     31 C         143.1413  144.4220  162.4562 C.ar    1  UNL1        0.1388
     32 F         144.6378  144.3386  162.3957 F       1  UNL1       -0.2044
     33 C         142.4704  144.9933  163.6700 C.ar    1  UNL1        0.0318
     34 C         140.9740  145.0767  163.7304 C.ar    1  UNL1        0.0342
     35 C         140.1484  144.5889  162.5770 C.ar    1  UNL1        0.1672
     36 F         138.6520  144.6723  162.6374 F       1  UNL1       -0.2018
     37 C         140.8193  144.0176  161.3631 C.ar    1  UNL1        0.1659
     38 F         139.9937  143.5297  160.2097 F       1  UNL1       -0.2020
@<TRIPOS>BOND
     1    27    28    1
     2    28    23    1
     3    23    24    2
     4    23    25   am
     5    25    11    1
     6    11    12   ar
     7    12    13    1
     8    12    14   ar
     9    14    15   ar
    10    15     1    1
    11     1     2   ar
    12     2     3   ar
    13     3    29    1
    14    29    30    1
    15    30    31   ar
    16    31    32    1
    17    31    33   ar
    18    33    34   ar
    19    34    35   ar
    20    35    36    1
    21    35    37   ar
    22    37    38    1
    23     3     4   ar
    24     4     5   ar
    25     5     6   ar
    26     6     7    1
    27     6     8   ar
    28     8     9   ar
    29     9    10   ar
    30    15    16   ar
    31    16    17   ar
    32    17    18    1
    33    17    11   ar
    34    10     1   ar
    35    37    30   ar
    36    10     4   ar
    37    25    26    1
    38    13    19    1
    39    13    20    1
    40    18    21    1
    41    18    22    1
@<TRIPOS>MOLECULE
*****
 38 41 0 0 0
SMALL
GASTEIGER

@<TRIPOS>ATOM
      1 N         142.1365  138.3588  160.7747 N.ar    1  UNL1       -0.1967
      2 N         141.5135  137.5556  161.8778 N.ar    1  UNL1       -0.1666
      3 C         142.0339  138.0797  163.1834 C.ar    1  UNL1        0.0850
      4 C         142.9784  139.2068  162.8872 C.ar    1  UNL1        0.0342
      5 C         143.7888  140.0982  163.7808 C.ar    1  UNL1        0.0141
      6 C         144.6627  141.1622  163.1856 C.ar    1  UNL1        0.0578
      7 CL        145.4732  142.0537  164.0791 Cl      1  UNL1       -0.0822
      8 C         144.7261  141.3346  161.6969 C.ar    1  UNL1        0.0129
      9 C         143.9157  140.4432  160.8034 C.ar    1  UNL1        0.0202
     10 C         143.0418  139.3792  161.3985 C.ar    1  UNL1        0.0871
     11 C         141.4159  137.8044  156.3675 C.ar    1  UNL1        0.1161
     12 C         142.7646  137.5031  156.9507 C.ar    1  UNL1        0.1449
     13 N         143.8731  137.0170  156.0648 N.pl3   1  UNL1       -0.3415
     14 N         143.0048  137.6879  158.4197 N.ar    1  UNL1       -0.1941
     15 C         141.8963  138.1740  159.3056 C.ar    1  UNL1        0.2554
     16 N         140.5475  138.4753  158.7224 N.ar    1  UNL1       -0.1941
     17 C         140.3073  138.2905  157.2534 C.ar    1  UNL1        0.1449
     18 N         138.9586  138.5919  156.6703 N.pl3   1  UNL1       -0.3415
     19 H         143.7155  136.8957  155.1006 H       1  UNL1        0.1438
     20 H         144.7584  136.8193  156.4475 H       1  UNL1        0.1438
     21 H         138.2310  138.9109  157.2517 H       1  UNL1        0.1438
     22 H         138.8009  138.4706  155.7061 H       1  UNL1        0.1438
     23 C         141.0781  136.2381  154.3223 C.2     1  UNL1        0.4056
     24 O         141.2206  135.0414  155.2154 O.2     1  UNL1       -0.2261
     25 N         141.1757  137.6196  154.8984 N.am    1  UNL1       -0.2452
     26 H         141.0821  138.4051  154.3123 H       1  UNL1        0.1584
     27 C         141.5380  134.9537  152.1113 C.3     1  UNL1        0.2574
     28 O         140.8379  136.0534  152.8532 O.3     1  UNL1       -0.4304
     29 C         141.6730  137.5668  164.5461 C.3     1  UNL1        0.0785
     30 C         140.7137  138.3345  165.4066 C.ar    1  UNL1        0.0410
     31 C         139.2372  138.2240  165.1665 C.ar    1  UNL1        0.1388
     32 F         138.7200  137.3459  164.0658 F       1  UNL1       -0.2044
     33 C         138.2778  138.9916  166.0270 C.ar    1  UNL1        0.0318
     34 C         138.7951  139.8697  167.1276 C.ar    1  UNL1        0.0342
     35 C         140.2716  139.9801  167.3678 C.ar    1  UNL1        0.1672
     36 F         140.7889  140.8582  168.4684 F       1  UNL1       -0.2018
     37 C         141.2309  139.2126  166.5073 C.ar    1  UNL1        0.1659
     38 F         142.7075  139.3230  166.7474 F       1  UNL1       -0.2020
@<TRIPOS>BOND
     1    27    28    1
     2    28    23    1
     3    23    24    2
     4    23    25   am
     5    25    11    1
     6    11    12   ar
     7    12    13    1
     8    12    14   ar
     9    14    15   ar
    10    15     1    1
    11     1     2   ar
    12     2     3   ar
    13     3    29    1
    14    29    30    1
    15    30    31   ar
    16    31    32    1
    17    31    33   ar
    18    33    34   ar
    19    34    35   ar
    20    35    36    1
    21    35    37   ar
    22    37    38    1
    23     3     4   ar
    24     4     5   ar
    25     5     6   ar
    26     6     7    1
    27     6     8   ar
    28     8     9   ar
    29     9    10   ar
    30    15    16   ar
    31    16    17   ar
    32    17    18    1
    33    17    11   ar
    34    10     1   ar
    35    37    30   ar
    36    10     4   ar
    37    25    26    1
    38    13    19    1
    39    13    20    1
    40    18    21    1
    41    18    22    1
