@<TRIPOS>MOLECULE
*****
 30 34 0 0 0
SMALL
GASTEIGER

@<TRIPOS>ATOM
      1 C         138.4195  140.1029  170.2454 C.ar    1  UNL1        0.1773
      2 N         138.5094  139.7195  168.7981 N.ar    1  UNL1       -0.2108
      3 C         139.8022  139.8883  168.0563 C.ar    1  UNL1        0.1327
      4 C         141.0051  140.4405  168.7619 C.ar    1  UNL1        0.0629
      5 C         142.4033  140.7179  168.2949 C.ar    1  UNL1        0.0024
      6 C         143.1776  141.2728  169.4536 C.ar    1  UNL1        0.0964
      7 N         142.2579  141.3384  170.6368 N.ar    1  UNL1       -0.2272
      8 C         140.9153  140.8239  170.2093 C.ar    1  UNL1        0.1440
      9 N         139.6225  140.6551  170.9510 N.ar    1  UNL1       -0.3214
     10 H         139.5635  140.9068  171.9010 H       1  UNL1        0.1689
     11 C         142.9340  140.4819  166.9119 C.3     1  UNL1        0.0290
     12 C         143.2067  141.6448  166.0046 C.3     1  UNL1        0.0366
     13 C         143.7374  141.4088  164.6216 C.3     1  UNL1        0.1425
     14 O         143.9954  140.0098  164.1459 O.3     1  UNL1       -0.3538
     15 C         143.7226  138.8469  165.0532 C.3     1  UNL1        0.1425
     16 C         143.1919  139.0829  166.4361 C.3     1  UNL1        0.0366
     17 N         139.8920  139.5048  166.6089 N.pl3   1  UNL1       -0.3196
     18 H         139.9555  138.5560  166.3541 H       1  UNL1        0.1481
     19 C         139.8850  140.5669  165.5498 C.3     1  UNL1        0.0704
     20 C         139.5575  141.9853  165.9121 C.3     1  UNL1        0.0209
     21 C         139.5505  143.0474  164.8530 C.3     1  UNL1        0.0177
     22 C         139.8710  142.6913  163.4316 C.3     1  UNL1        0.0578
     23 C         140.1986  141.2731  163.0693 C.3     1  UNL1        0.0177
     24 C         140.2056  140.2109  164.1284 C.3     1  UNL1        0.0209
     25 N         139.8641  143.7535  162.3725 N.3     1  UNL1       -0.2698
     26 C         140.0740  143.3805  160.9348 C.3     1  UNL1        0.1046
     27 C         140.0671  144.4427  159.8757 C.3     1  UNL1        0.1595
     28 O         139.8501  145.8778  160.2542 O.3     1  UNL1       -0.3508
     29 C         139.6402  146.2508  161.6918 C.3     1  UNL1        0.1595
     30 C         139.6471  145.1887  162.7510 C.3     1  UNL1        0.1046
@<TRIPOS>BOND
     1     1     2   ar
     2     2     3   ar
     3     3    17    1
     4    19    17    1
     5    19    20    1
     6    20    21    1
     7    21    22    1
     8    22    25    1
     9    25    26    1
    10    26    27    1
    11    27    28    1
    12    28    29    1
    13    29    30    1
    14    22    23    1
    15    23    24    1
    16     3     4   ar
    17     4     5   ar
    18     5    11    1
    19    11    12    1
    20    12    13    1
    21    13    14    1
    22    14    15    1
    23    15    16    1
    24     5     6   ar
    25     6     7   ar
    26     7     8   ar
    27     8     9   ar
    28     9     1   ar
    29    24    19    1
    30     8     4    1
    31    30    25    1
    32    16    11    1
    33    17    18    1
    34     9    10    1
@<TRIPOS>MOLECULE
*****
 30 34 0 0 0
SMALL
GASTEIGER

@<TRIPOS>ATOM
      1 C         139.9941  145.7766  161.2723 C.ar    1  UNL1        0.1773
      2 N         139.2708  144.6980  162.0229 N.ar    1  UNL1       -0.2108
      3 C         139.8943  143.3423  162.1746 C.ar    1  UNL1        0.1327
      4 C         141.2413  143.0650  161.5756 C.ar    1  UNL1        0.0629
      5 C         142.0997  141.8350  161.5619 C.ar    1  UNL1        0.0024
      6 C         143.3537  142.1533  160.8027 C.ar    1  UNL1        0.0964
      7 N         143.2702  143.5801  160.3473 N.ar    1  UNL1       -0.2272
      8 C         141.9646  144.1435  160.8249 C.ar    1  UNL1        0.1440
      9 N         141.3411  145.4993  160.6733 N.ar    1  UNL1       -0.3214
     10 H         141.8159  146.2071  160.1806 H       1  UNL1        0.1689
     11 C         141.7633  140.5179  162.1960 C.3     1  UNL1        0.0290
     12 C         140.7573  139.6106  161.5519 C.3     1  UNL1        0.0366
     13 C         140.4209  138.2935  162.1860 C.3     1  UNL1        0.1425
     14 O         141.0903  137.8837  163.4642 O.3     1  UNL1       -0.3538
     15 C         142.0963  138.7910  164.1083 C.3     1  UNL1        0.1425
     16 C         142.4327  140.1081  163.4742 C.3     1  UNL1        0.0366
     17 N         139.1709  142.2637  162.9253 N.pl3   1  UNL1       -0.3196
     18 H         138.5121  141.6980  162.4613 H       1  UNL1        0.1481
     19 C         139.4511  142.0471  164.3828 C.3     1  UNL1        0.0704
     20 C         140.1415  143.1136  165.1804 C.3     1  UNL1        0.0209
     21 C         140.4217  142.8971  166.6380 C.3     1  UNL1        0.0177
     22 C         140.0116  141.6140  167.2980 C.3     1  UNL1        0.0578
     23 C         139.3213  140.5476  166.5005 C.3     1  UNL1        0.0177
     24 C         139.0410  140.7641  165.0429 C.3     1  UNL1        0.0209
     25 N         140.2919  141.3974  168.7556 N.3     1  UNL1       -0.2698
     26 C         139.7251  140.1996  169.4584 C.3     1  UNL1        0.1046
     27 C         140.0053  139.9830  170.9160 C.3     1  UNL1        0.1595
     28 O         140.8524  140.9642  171.6707 O.3     1  UNL1       -0.3508
     29 C         141.4192  142.1620  170.9680 C.3     1  UNL1        0.1595
     30 C         141.1389  142.3787  169.5103 C.3     1  UNL1        0.1046
@<TRIPOS>BOND
     1     1     2   ar
     2     2     3   ar
     3     3    17    1
     4    19    17    1
     5    19    20    1
     6    20    21    1
     7    21    22    1
     8    22    25    1
     9    25    26    1
    10    26    27    1
    11    27    28    1
    12    28    29    1
    13    29    30    1
    14    22    23    1
    15    23    24    1
    16     3     4   ar
    17     4     5   ar
    18     5    11    1
    19    11    12    1
    20    12    13    1
    21    13    14    1
    22    14    15    1
    23    15    16    1
    24     5     6   ar
    25     6     7   ar
    26     7     8   ar
    27     8     9   ar
    28     9     1   ar
    29    24    19    1
    30     8     4    1
    31    30    25    1
    32    16    11    1
    33    17    18    1
    34     9    10    1
@<TRIPOS>MOLECULE
*****
 30 34 0 0 0
SMALL
GASTEIGER

@<TRIPOS>ATOM
      1 C         142.5719  143.6235  160.4834 C.ar    1  UNL1        0.1773
      2 N         142.8817  142.5534  161.4878 N.ar    1  UNL1       -0.2108
      3 C         141.7706  141.7452  162.0896 C.ar    1  UNL1        0.1327
      4 C         140.3496  142.0071  161.6869 C.ar    1  UNL1        0.0629
      5 C         139.0549  141.3765  162.1066 C.ar    1  UNL1        0.0024
      6 C         137.9449  142.0568  161.3615 C.ar    1  UNL1        0.0964
      7 N         138.5536  143.1079  160.4814 N.ar    1  UNL1       -0.2272
      8 C         140.0398  143.0772  160.6825 C.ar    1  UNL1        0.1440
      9 N         141.1509  143.8854  160.0807 N.ar    1  UNL1       -0.3214
     10 H         140.9476  144.5877  159.4214 H       1  UNL1        0.1689
     11 C         138.8979  140.2613  163.0974 C.3     1  UNL1        0.0290
     12 C         138.3537  140.5452  164.4661 C.3     1  UNL1        0.0366
     13 C         138.1967  139.4300  165.4569 C.3     1  UNL1        0.1425
     14 O         138.5837  138.0310  165.0791 O.3     1  UNL1       -0.3538
     15 C         139.1278  137.7471  163.7104 C.3     1  UNL1        0.1425
     16 C         139.2849  138.8622  162.7196 C.3     1  UNL1        0.0366
     17 N         142.0805  140.6751  163.0940 N.pl3   1  UNL1       -0.3196
     18 H         142.4611  139.8170  162.7975 H       1  UNL1        0.1481
     19 C         141.8104  140.9125  164.5503 C.3     1  UNL1        0.0704
     20 C         141.9030  139.7763  165.5252 C.3     1  UNL1        0.0209
     21 C         141.6330  140.0137  166.9815 C.3     1  UNL1        0.0177
     22 C         141.2704  141.3873  167.4628 C.3     1  UNL1        0.0578
     23 C         141.1778  142.5235  166.4880 C.3     1  UNL1        0.0177
     24 C         141.4478  142.2862  165.0316 C.3     1  UNL1        0.0209
     25 N         141.0003  141.6247  168.9191 N.3     1  UNL1       -0.2698
     26 C         140.2780  142.8649  169.3555 C.3     1  UNL1        0.1046
     27 C         140.0080  143.1023  170.8118 C.3     1  UNL1        0.1595
     28 O         140.4603  142.0996  171.8316 O.3     1  UNL1       -0.3508
     29 C         141.1826  140.8596  171.3953 C.3     1  UNL1        0.1595
     30 C         141.4526  140.6221  169.9390 C.3     1  UNL1        0.1046
@<TRIPOS>BOND
     1     1     2   ar
     2     2     3   ar
     3     3    17    1
     4    19    17    1
     5    19    20    1
     6    20    21    1
     7    21    22    1
     8    22    25    1
     9    25    26    1
    10    26    27    1
    11    27    28    1
    12    28    29    1
    13    29    30    1
    14    22    23    1
    15    23    24    1
    16     3     4   ar
    17     4     5   ar
    18     5    11    1
    19    11    12    1
    20    12    13    1
    21    13    14    1
    22    14    15    1
    23    15    16    1
    24     5     6   ar
    25     6     7   ar
    26     7     8   ar
    27     8     9   ar
    28     9     1   ar
    29    24    19    1
    30     8     4    1
    31    30    25    1
    32    16    11    1
    33    17    18    1
    34     9    10    1
@<TRIPOS>MOLECULE
*****
 30 34 0 0 0
SMALL
GASTEIGER

@<TRIPOS>ATOM
      1 C         138.7910  142.4784  160.4350 C.ar    1  UNL1        0.1773
      2 N         139.9190  142.8846  161.3364 N.ar    1  UNL1       -0.2108
      3 C         140.7461  141.8374  162.0214 C.ar    1  UNL1        0.1327
      4 C         140.4453  140.3840  161.8050 C.ar    1  UNL1        0.0629
      5 C         141.0828  139.1364  162.3408 C.ar    1  UNL1        0.0024
      6 C         140.3489  137.9591  161.7705 C.ar    1  UNL1        0.0964
      7 N         139.2578  138.4790  160.8823 N.ar    1  UNL1       -0.2272
      8 C         139.3174  139.9777  160.9036 C.ar    1  UNL1        0.1440
      9 N         138.4902  141.0249  160.2186 N.ar    1  UNL1       -0.3214
     10 H         137.7499  140.7582  159.6269 H       1  UNL1        0.1689
     11 C         142.2495  139.0767  163.2817 C.3     1  UNL1        0.0290
     12 C         143.6177  139.4658  162.8056 C.3     1  UNL1        0.0366
     13 C         144.7843  139.4060  163.7466 C.3     1  UNL1        0.1425
     14 O         144.5829  138.9573  165.1636 O.3     1  UNL1       -0.3538
     15 C         143.2147  138.5682  165.6397 C.3     1  UNL1        0.1425
     16 C         142.0480  138.6279  164.6988 C.3     1  UNL1        0.0366
     17 N         141.8741  142.2438  162.9229 N.pl3   1  UNL1       -0.3196
     18 H         142.7331  142.5315  162.5375 H       1  UNL1        0.1481
     19 C         141.6933  142.2118  164.4116 C.3     1  UNL1        0.0704
     20 C         142.8924  142.1996  165.3127 C.3     1  UNL1        0.0209
     21 C         142.7116  142.1677  166.8014 C.3     1  UNL1        0.0177
     22 C         141.3316  142.1479  167.3890 C.3     1  UNL1        0.0578
     23 C         140.1325  142.1602  166.4880 C.3     1  UNL1        0.0177
     24 C         140.3133  142.1921  164.9992 C.3     1  UNL1        0.0209
     25 N         141.1508  142.1160  168.8777 N.3     1  UNL1       -0.2698
     26 C         142.0480  141.2623  169.7241 C.3     1  UNL1        0.1046
     27 C         141.8671  141.2304  171.2128 C.3     1  UNL1        0.1595
     28 O         140.7891  142.0521  171.8552 O.3     1  UNL1       -0.3508
     29 C         139.8919  142.9057  171.0089 C.3     1  UNL1        0.1595
     30 C         140.0727  142.9377  169.5201 C.3     1  UNL1        0.1046
@<TRIPOS>BOND
     1     1     2   ar
     2     2     3   ar
     3     3    17    1
     4    19    17    1
     5    19    20    1
     6    20    21    1
     7    21    22    1
     8    22    25    1
     9    25    26    1
    10    26    27    1
    11    27    28    1
    12    28    29    1
    13    29    30    1
    14    22    23    1
    15    23    24    1
    16     3     4   ar
    17     4     5   ar
    18     5    11    1
    19    11    12    1
    20    12    13    1
    21    13    14    1
    22    14    15    1
    23    15    16    1
    24     5     6   ar
    25     6     7   ar
    26     7     8   ar
    27     8     9   ar
    28     9     1   ar
    29    24    19    1
    30     8     4    1
    31    30    25    1
    32    16    11    1
    33    17    18    1
    34     9    10    1
@<TRIPOS>MOLECULE
*****
 30 34 0 0 0
SMALL
GASTEIGER

@<TRIPOS>ATOM
      1 C         140.9784  145.4330  160.9536 C.ar    1  UNL1        0.1773
      2 N         141.8411  144.6002  161.8547 N.ar    1  UNL1       -0.2108
      3 C         141.4839  143.1680  162.1216 C.ar    1  UNL1        0.1327
      4 C         140.2640  142.5686  161.4873 C.ar    1  UNL1        0.0629
      5 C         139.6646  141.1957  161.5639 C.ar    1  UNL1        0.0024
      6 C         138.4313  141.1800  160.7101 C.ar    1  UNL1        0.0964
      7 N         138.2686  142.5431  160.1058 N.ar    1  UNL1       -0.2272
      8 C         139.4012  143.4014  160.5861 C.ar    1  UNL1        0.1440
      9 N         139.7584  144.8336  160.3193 N.ar    1  UNL1       -0.3214
     10 H         139.1921  145.3801  159.7278 H       1  UNL1        0.1689
     11 C         140.2038  140.0412  162.3554 C.3     1  UNL1        0.0290
     12 C         141.3224  139.2094  161.8015 C.3     1  UNL1        0.0366
     13 C         141.8615  138.0549  162.5930 C.3     1  UNL1        0.1425
     14 O         141.2822  137.7322  163.9384 O.3     1  UNL1       -0.3538
     15 C         140.1636  138.5641  164.4923 C.3     1  UNL1        0.1425
     16 C         139.6244  139.7185  163.7008 C.3     1  UNL1        0.0366
     17 N         142.3468  142.3352  163.0227 N.pl3   1  UNL1       -0.3196
     18 H         143.1023  141.8268  162.6488 H       1  UNL1        0.1481
     19 C         142.0584  142.2772  164.4936 C.3     1  UNL1        0.0704
     20 C         142.9800  141.5277  165.4096 C.3     1  UNL1        0.0209
     21 C         142.6917  141.4697  166.8804 C.3     1  UNL1        0.0177
     22 C         141.4817  142.1612  167.4354 C.3     1  UNL1        0.0578
     23 C         140.5601  142.9106  166.5195 C.3     1  UNL1        0.0177
     24 C         140.8485  142.9687  165.0485 C.3     1  UNL1        0.0209
     25 N         141.1934  142.1031  168.9062 N.3     1  UNL1       -0.2698
     26 C         141.9450  141.1436  169.7806 C.3     1  UNL1        0.1046
     27 C         141.6566  141.0856  171.2515 C.3     1  UNL1        0.1595
     28 O         140.6167  141.9871  171.8480 O.3     1  UNL1       -0.3508
     29 C         139.8651  142.9466  170.9737 C.3     1  UNL1        0.1595
     30 C         140.1534  143.0046  169.5028 C.3     1  UNL1        0.1046
@<TRIPOS>BOND
     1     1     2   ar
     2     2     3   ar
     3     3    17    1
     4    19    17    1
     5    19    20    1
     6    20    21    1
     7    21    22    1
     8    22    25    1
     9    25    26    1
    10    26    27    1
    11    27    28    1
    12    28    29    1
    13    29    30    1
    14    22    23    1
    15    23    24    1
    16     3     4   ar
    17     4     5   ar
    18     5    11    1
    19    11    12    1
    20    12    13    1
    21    13    14    1
    22    14    15    1
    23    15    16    1
    24     5     6   ar
    25     6     7   ar
    26     7     8   ar
    27     8     9   ar
    28     9     1   ar
    29    24    19    1
    30     8     4    1
    31    30    25    1
    32    16    11    1
    33    17    18    1
    34     9    10    1
@<TRIPOS>MOLECULE
*****
 30 34 0 0 0
SMALL
GASTEIGER

@<TRIPOS>ATOM
      1 C         137.7465  138.2989  161.6872 C.ar    1  UNL1        0.1773
      2 N         137.7549  139.6093  162.4171 N.ar    1  UNL1       -0.2108
      3 C         139.0169  140.4163  162.4951 C.ar    1  UNL1        0.1327
      4 C         140.2705  139.9129  161.8433 C.ar    1  UNL1        0.0629
      5 C         141.6544  140.4846  161.7537 C.ar    1  UNL1        0.0024
      6 C         142.5014  139.5274  160.9685 C.ar    1  UNL1        0.0964
      7 N         141.6409  138.3642  160.5727 N.ar    1  UNL1       -0.2272
      8 C         140.2621  138.6025  161.1134 C.ar    1  UNL1        0.1440
      9 N         139.0001  137.7955  161.0354 N.ar    1  UNL1       -0.3214
     10 H         138.9947  136.9354  160.5564 H       1  UNL1        0.1689
     11 C         142.1111  141.7850  162.3454 C.3     1  UNL1        0.0290
     12 C         141.7098  143.0816  161.7069 C.3     1  UNL1        0.0366
     13 C         142.1665  144.3821  162.2987 C.3     1  UNL1        0.1425
     14 O         143.0246  144.3860  163.5289 O.3     1  UNL1       -0.3538
     15 C         143.4260  143.0894  164.1675 C.3     1  UNL1        0.1425
     16 C         142.9692  141.7889  163.5757 C.3     1  UNL1        0.0366
     17 N         139.0252  141.7268  163.2250 N.pl3   1  UNL1       -0.3196
     18 H         138.7215  142.5455  162.7702 H       1  UNL1        0.1481
     19 C         139.4962  141.7899  164.6477 C.3     1  UNL1        0.0704
     20 C         139.5944  140.5337  165.4617 C.3     1  UNL1        0.0209
     21 C         140.0653  140.5968  166.8844 C.3     1  UNL1        0.0177
     22 C         140.4381  141.9160  167.4932 C.3     1  UNL1        0.0578
     23 C         140.3399  143.1722  166.6793 C.3     1  UNL1        0.0177
     24 C         139.8689  143.1091  165.2565 C.3     1  UNL1        0.0209
     25 N         140.9091  141.9791  168.9159 N.3     1  UNL1       -0.2698
     26 C         142.1178  142.7937  169.2704 C.3     1  UNL1        0.1046
     27 C         142.5888  142.8568  170.6931 C.3     1  UNL1        0.1595
     28 O         141.8511  142.1054  171.7614 O.3     1  UNL1       -0.3508
     29 C         140.6424  141.2909  171.4070 C.3     1  UNL1        0.1595
     30 C         140.1714  141.2277  169.9842 C.3     1  UNL1        0.1046
@<TRIPOS>BOND
     1     1     2   ar
     2     2     3   ar
     3     3    17    1
     4    19    17    1
     5    19    20    1
     6    20    21    1
     7    21    22    1
     8    22    25    1
     9    25    26    1
    10    26    27    1
    11    27    28    1
    12    28    29    1
    13    29    30    1
    14    22    23    1
    15    23    24    1
    16     3     4   ar
    17     4     5   ar
    18     5    11    1
    19    11    12    1
    20    12    13    1
    21    13    14    1
    22    14    15    1
    23    15    16    1
    24     5     6   ar
    25     6     7   ar
    26     7     8   ar
    27     8     9   ar
    28     9     1   ar
    29    24    19    1
    30     8     4    1
    31    30    25    1
    32    16    11    1
    33    17    18    1
    34     9    10    1
@<TRIPOS>MOLECULE
*****
 30 34 0 0 0
SMALL
GASTEIGER

@<TRIPOS>ATOM
      1 C         143.4809  142.9852  160.2839 C.ar    1  UNL1        0.1773
      2 N         142.2740  142.9322  161.1730 N.ar    1  UNL1       -0.2108
      3 C         141.7789  141.6132  161.6877 C.ar    1  UNL1        0.1327
      4 C         142.4907  140.3470  161.3134 C.ar    1  UNL1        0.0629
      5 C         142.2368  138.9112  161.6652 C.ar    1  UNL1        0.0024
      6 C         143.2869  138.0767  160.9936 C.ar    1  UNL1        0.0964
      7 N         144.1898  138.9968  160.2267 N.ar    1  UNL1       -0.2272
      8 C         143.6977  140.4000  160.4244 C.ar    1  UNL1        0.1440
      9 N         144.1928  141.7190  159.9096 N.ar    1  UNL1       -0.3214
     10 H         144.9849  141.7538  159.3261 H       1  UNL1        0.1689
     11 C         141.1276  138.3996  162.5358 C.3     1  UNL1        0.0290
     12 C         141.4068  138.0173  163.9591 C.3     1  UNL1        0.0366
     13 C         140.2976  137.5057  164.8297 C.3     1  UNL1        0.1425
     14 O         138.9091  137.3765  164.2771 O.3     1  UNL1       -0.3538
     15 C         138.6299  137.7589  162.8538 C.3     1  UNL1        0.1425
     16 C         139.7392  138.2704  161.9832 C.3     1  UNL1        0.0366
     17 N         140.5719  141.5603  162.5768 N.pl3   1  UNL1       -0.3196
     18 H         139.6705  141.5304  162.1819 H       1  UNL1        0.1481
     19 C         140.7381  141.5529  164.0675 C.3     1  UNL1        0.0704
     20 C         139.5849  141.1745  164.9490 C.3     1  UNL1        0.0209
     21 C         139.7512  141.1671  166.4397 C.3     1  UNL1        0.0177
     22 C         141.0707  141.5382  167.0490 C.3     1  UNL1        0.0578
     23 C         142.2239  141.9166  166.1676 C.3     1  UNL1        0.0177
     24 C         142.0576  141.9240  164.6768 C.3     1  UNL1        0.0209
     25 N         141.2370  141.5308  168.5397 N.3     1  UNL1       -0.2698
     26 C         142.1885  142.4889  169.1930 C.3     1  UNL1        0.1046
     27 C         142.3548  142.4815  170.6837 C.3     1  UNL1        0.1595
     28 O         141.5696  141.5161  171.5212 O.3     1  UNL1       -0.3508
     29 C         140.6181  140.5581  170.8680 C.3     1  UNL1        0.1595
     30 C         140.4517  140.5654  169.3772 C.3     1  UNL1        0.1046
@<TRIPOS>BOND
     1     1     2   ar
     2     2     3   ar
     3     3    17    1
     4    19    17    1
     5    19    20    1
     6    20    21    1
     7    21    22    1
     8    22    25    1
     9    25    26    1
    10    26    27    1
    11    27    28    1
    12    28    29    1
    13    29    30    1
    14    22    23    1
    15    23    24    1
    16     3     4   ar
    17     4     5   ar
    18     5    11    1
    19    11    12    1
    20    12    13    1
    21    13    14    1
    22    14    15    1
    23    15    16    1
    24     5     6   ar
    25     6     7   ar
    26     7     8   ar
    27     8     9   ar
    28     9     1   ar
    29    24    19    1
    30     8     4    1
    31    30    25    1
    32    16    11    1
    33    17    18    1
    34     9    10    1
@<TRIPOS>MOLECULE
*****
 30 34 0 0 0
SMALL
GASTEIGER

@<TRIPOS>ATOM
      1 C         141.3312  141.8438  169.0287 C.ar    1  UNL1        0.1773
      2 N         142.0537  141.5621  167.7448 N.ar    1  UNL1       -0.2108
      3 C         141.4540  140.6278  166.7360 C.ar    1  UNL1        0.1327
      4 C         140.1317  139.9753  167.0112 C.ar    1  UNL1        0.0629
      5 C         139.2996  139.0170  166.2117 C.ar    1  UNL1        0.0024
      6 C         138.0627  138.7065  167.0015 C.ar    1  UNL1        0.0964
      7 N         138.1304  139.4728  168.2892 N.ar    1  UNL1       -0.2272
      8 C         139.4091  140.2571  168.2951 C.ar    1  UNL1        0.1440
      9 N         140.0089  141.1913  169.3039 N.ar    1  UNL1       -0.3214
     10 H         139.5346  141.3762  170.1466 H       1  UNL1        0.1689
     11 C         139.6439  138.4661  164.8597 C.3     1  UNL1        0.0290
     12 C         138.8762  138.9116  163.6505 C.3     1  UNL1        0.0366
     13 C         139.2205  138.3606  162.2985 C.3     1  UNL1        0.1425
     14 O         140.3325  137.3641  162.1557 O.3     1  UNL1       -0.3538
     15 C         141.1001  136.9185  163.3649 C.3     1  UNL1        0.1425
     16 C         140.7558  137.4695  164.7169 C.3     1  UNL1        0.0366
     17 N         142.1766  140.3461  165.4520 N.pl3   1  UNL1       -0.3196
     18 H         142.8917  139.6699  165.4278 H       1  UNL1        0.1481
     19 C         141.8096  141.0947  164.2051 C.3     1  UNL1        0.0704
     20 C         142.1915  140.5471  162.8618 C.3     1  UNL1        0.0209
     21 C         141.8245  141.2957  161.6148 C.3     1  UNL1        0.0177
     22 C         141.0757  142.5918  161.7111 C.3     1  UNL1        0.0578
     23 C         140.6939  143.1394  163.0543 C.3     1  UNL1        0.0177
     24 C         141.0608  142.3908  164.3013 C.3     1  UNL1        0.0209
     25 N         140.7087  143.3404  160.4641 N.3     1  UNL1       -0.2698
     26 C         139.8898  142.6705  159.4007 C.3     1  UNL1        0.1046
     27 C         139.5229  143.4190  158.1538 C.3     1  UNL1        0.1595
     28 O         139.9748  144.8375  157.9701 O.3     1  UNL1       -0.3508
     29 C         140.7936  145.5074  159.0334 C.3     1  UNL1        0.1595
     30 C         141.1607  144.7588  160.2804 C.3     1  UNL1        0.1046
@<TRIPOS>BOND
     1     1     2   ar
     2     2     3   ar
     3     3    17    1
     4    19    17    1
     5    19    20    1
     6    20    21    1
     7    21    22    1
     8    22    25    1
     9    25    26    1
    10    26    27    1
    11    27    28    1
    12    28    29    1
    13    29    30    1
    14    22    23    1
    15    23    24    1
    16     3     4   ar
    17     4     5   ar
    18     5    11    1
    19    11    12    1
    20    12    13    1
    21    13    14    1
    22    14    15    1
    23    15    16    1
    24     5     6   ar
    25     6     7   ar
    26     7     8   ar
    27     8     9   ar
    28     9     1   ar
    29    24    19    1
    30     8     4    1
    31    30    25    1
    32    16    11    1
    33    17    18    1
    34     9    10    1
@<TRIPOS>MOLECULE
*****
 30 34 0 0 0
SMALL
GASTEIGER

@<TRIPOS>ATOM
      1 C         137.7293  138.4395  166.8263 C.ar    1  UNL1        0.1773
      2 N         138.5458  138.2789  165.5783 N.ar    1  UNL1       -0.2108
      3 C         139.9351  138.8408  165.5136 C.ar    1  UNL1        0.1327
      4 C         140.5078  139.5632  166.6968 C.ar    1  UNL1        0.0629
      5 C         141.8375  140.2188  166.9254 C.ar    1  UNL1        0.0024
      6 C         141.8427  140.7846  168.3146 C.ar    1  UNL1        0.0964
      7 N         140.5163  140.4786  168.9446 N.ar    1  UNL1       -0.2272
      8 C         139.6913  139.7238  167.9448 C.ar    1  UNL1        0.1440
      9 N         138.3020  139.1619  168.0095 N.ar    1  UNL1       -0.3214
     10 H         137.7661  139.2673  168.8286 H       1  UNL1        0.1689
     11 C         142.9641  140.2952  165.9380 C.3     1  UNL1        0.0290
     12 C         143.3308  141.6114  165.3189 C.3     1  UNL1        0.0366
     13 C         144.4574  141.6878  164.3316 C.3     1  UNL1        0.1425
     14 O         145.2174  140.4481  163.9632 O.3     1  UNL1       -0.3538
     15 C         144.8506  139.1320  164.5823 C.3     1  UNL1        0.1425
     16 C         143.7240  139.0556  165.5697 C.3     1  UNL1        0.0366
     17 N         140.7517  138.6802  164.2656 N.pl3   1  UNL1       -0.3196
     18 H         141.2151  137.8303  164.0865 H       1  UNL1        0.1481
     19 C         140.8620  139.8145  163.2904 C.3     1  UNL1        0.0704
     20 C         141.8371  139.7339  162.1533 C.3     1  UNL1        0.0209
     21 C         141.9475  140.8683  161.1782 C.3     1  UNL1        0.0177
     22 C         141.0828  142.0832  161.3399 C.3     1  UNL1        0.0578
     23 C         140.1077  142.1639  162.4769 C.3     1  UNL1        0.0177
     24 C         139.9973  141.0295  163.4521 C.3     1  UNL1        0.0209
     25 N         141.1931  143.2176  160.3647 N.3     1  UNL1       -0.2698
     26 C         140.2400  144.3730  160.4471 C.3     1  UNL1        0.1046
     27 C         140.3504  145.5073  159.4719 C.3     1  UNL1        0.1595
     28 O         141.4138  145.4863  158.4143 O.3     1  UNL1       -0.3508
     29 C         142.3669  144.3310  158.3318 C.3     1  UNL1        0.1595
     30 C         142.2566  143.1966  159.3071 C.3     1  UNL1        0.1046
@<TRIPOS>BOND
     1     1     2   ar
     2     2     3   ar
     3     3    17    1
     4    19    17    1
     5    19    20    1
     6    20    21    1
     7    21    22    1
     8    22    25    1
     9    25    26    1
    10    26    27    1
    11    27    28    1
    12    28    29    1
    13    29    30    1
    14    22    23    1
    15    23    24    1
    16     3     4   ar
    17     4     5   ar
    18     5    11    1
    19    11    12    1
    20    12    13    1
    21    13    14    1
    22    14    15    1
    23    15    16    1
    24     5     6   ar
    25     6     7   ar
    26     7     8   ar
    27     8     9   ar
    28     9     1   ar
    29    24    19    1
    30     8     4    1
    31    30    25    1
    32    16    11    1
    33    17    18    1
    34     9    10    1
