@<TRIPOS>MOLECULE
*****
 34 38 0 0 0
SMALL
GASTEIGER

@<TRIPOS>ATOM
      1 C         140.3516  145.6622  160.3150 C.3     1  UNL1        0.0188
      2 C         140.5094  144.2603  159.8050 C.3     1  UNL1        0.0203
      3 C         139.5226  143.7046  158.8214 C.3     1  UNL1        0.0915
      4 N         138.3701  142.8742  159.3031 N.3     1  UNL1       -0.1789
      5 H         137.6059  143.5193  159.5038 H       1  UNL1        0.1488
      6 O         137.7304  142.9787  161.3230 O.2     1  UNL1       -0.1525
      7 S         138.5285  142.0010  160.5124 S.O2    1  UNL1        0.0659
      8 O         139.3266  141.0232  159.7018 O.2     1  UNL1       -0.1525
      9 C         138.6870  141.1278  161.7217 C.ar    1  UNL1        0.1514
     10 C         138.0992  141.3844  163.0776 C.ar    1  UNL1        0.0271
     11 C         138.5099  140.2599  163.9813 C.ar    1  UNL1        0.0079
     12 C         138.2263  139.9794  165.4273 C.ar    1  UNL1        0.0006
     13 C         138.7844  138.7474  166.0758 C.ar    1  UNL1        0.0000
     14 C         139.6261  137.7957  165.2784 C.ar    1  UNL1        0.0005
     15 C         139.9097  138.0762  163.8324 C.ar    1  UNL1        0.0065
     16 C         139.3516  139.3082  163.1839 C.ar    1  UNL1        0.0308
     17 S         139.4611  139.8446  161.7873 S.2     1  UNL1       -0.0673
     18 C         139.7243  145.9063  161.6555 C.3     1  UNL1        0.0721
     19 N         140.0576  145.0129  162.8134 N.3     1  UNL1       -0.2727
     20 C         139.1015  144.8861  163.9623 C.3     1  UNL1        0.0725
     21 C         139.4348  143.9927  165.1202 C.3     1  UNL1        0.0234
     22 C         140.7241  143.2261  165.1293 C.3     1  UNL1        0.0464
     23 C         141.6801  143.3530  163.9804 C.3     1  UNL1        0.0234
     24 C         141.3469  144.2464  162.8225 C.3     1  UNL1        0.0725
     25 C         141.0574  142.3327  166.2872 C.ar    1  UNL1        0.1003
     26 N         140.6407  142.5443  167.7125 N.ar    1  UNL1       -0.0814
     27 O         141.1916  141.4132  168.5293 O.2     1  UNL1       -0.3536
     28 C         141.9488  140.5025  167.6087 C.ar    1  UNL1        0.1787
     29 C         142.7031  139.2293  167.8533 C.ar    1  UNL1        0.0698
     30 C         143.3744  138.5243  166.7121 C.ar    1  UNL1        0.1433
     31 F         144.1287  137.2510  166.9566 F       1  UNL1       -0.2041
     32 C         143.2914  139.0926  165.3264 C.ar    1  UNL1        0.0299
     33 C         142.5371  140.3658  165.0819 C.ar    1  UNL1        0.0067
     34 C         141.8658  141.0708  166.2230 C.ar    1  UNL1        0.0540
@<TRIPOS>BOND
     1     6     7    2
     2     7     8    2
     3     7     4    1
     4     4     3    1
     5     3     2    1
     6     2     1    1
     7     1    18    1
     8    18    19    1
     9    19    20    1
    10    20    21    1
    11    21    22    1
    12    22    25    1
    13    25    26   ar
    14    26    27   ar
    15    27    28   ar
    16    28    29   ar
    17    29    30   ar
    18    30    31    1
    19    30    32   ar
    20    32    33   ar
    21    33    34   ar
    22    22    23    1
    23    23    24    1
    24     7     9    1
    25     9    10   ar
    26    10    11   ar
    27    11    12   ar
    28    12    13   ar
    29    13    14   ar
    30    14    15   ar
    31    15    16   ar
    32    16    17   ar
    33    24    19    1
    34    17     9   ar
    35    34    25   ar
    36    16    11   ar
    37    34    28   ar
    38     4     5    1
@<TRIPOS>MOLECULE
*****
 34 38 0 0 0
SMALL
GASTEIGER

@<TRIPOS>ATOM
      1 C         141.1810  144.7294  158.1733 C.3     1  UNL1        0.0188
      2 C         139.9065  144.1425  157.6429 C.3     1  UNL1        0.0203
      3 C         139.3220  142.9178  158.2819 C.3     1  UNL1        0.0915
      4 N         138.4065  143.0521  159.4625 N.3     1  UNL1       -0.1789
      5 H         138.5323  143.9965  159.8267 H       1  UNL1        0.1488
      6 O         137.6633  143.0122  161.4490 O.2     1  UNL1       -0.1525
      7 S         138.5429  142.1170  160.6275 S.O2    1  UNL1        0.0659
      8 O         139.4225  141.2218  159.8060 O.2     1  UNL1       -0.1525
      9 C         138.6793  141.1820  161.7924 C.ar    1  UNL1        0.1514
     10 C         138.0688  141.3695  163.1497 C.ar    1  UNL1        0.0271
     11 C         138.4623  140.1987  164.0007 C.ar    1  UNL1        0.0079
     12 C         138.1536  139.8444  165.4253 C.ar    1  UNL1        0.0006
     13 C         138.6986  138.5791  166.0184 C.ar    1  UNL1        0.0000
     14 C         139.5522  137.6679  165.1871 C.ar    1  UNL1        0.0005
     15 C         139.8609  138.0222  163.7626 C.ar    1  UNL1        0.0065
     16 C         139.3159  139.2875  163.1694 C.ar    1  UNL1        0.0308
     17 S         139.4501  139.8952  161.8046 S.2     1  UNL1       -0.0673
     18 C         141.1779  145.4782  159.4730 C.3     1  UNL1        0.0721
     19 N         141.1959  144.7271  160.7713 N.3     1  UNL1       -0.2727
     20 C         142.0235  143.4835  160.9070 C.3     1  UNL1        0.0725
     21 C         142.0414  142.7324  162.2053 C.3     1  UNL1        0.0234
     22 C         141.2316  143.2250  163.3680 C.3     1  UNL1        0.0464
     23 C         140.4040  144.4686  163.2323 C.3     1  UNL1        0.0234
     24 C         140.3861  145.2196  161.9340 C.3     1  UNL1        0.0725
     25 C         141.2495  142.4739  164.6663 C.ar    1  UNL1        0.1003
     26 N         140.5305  142.8675  165.9225 N.ar    1  UNL1       -0.0814
     27 O         140.8262  141.8341  166.9689 O.2     1  UNL1       -0.3536
     28 C         141.7279  140.8020  166.3593 C.ar    1  UNL1        0.1787
     29 C         142.3446  139.5532  166.9162 C.ar    1  UNL1        0.0698
     30 C         143.2228  138.6998  166.0500 C.ar    1  UNL1        0.1433
     31 F         143.8395  137.4509  166.6069 F       1  UNL1       -0.2041
     32 C         143.4844  139.0952  164.6269 C.ar    1  UNL1        0.0299
     33 C         142.8678  140.3440  164.0700 C.ar    1  UNL1        0.0067
     34 C         141.9895  141.1974  164.9362 C.ar    1  UNL1        0.0540
@<TRIPOS>BOND
     1     6     7    2
     2     7     8    2
     3     7     4    1
     4     4     3    1
     5     3     2    1
     6     2     1    1
     7     1    18    1
     8    18    19    1
     9    19    20    1
    10    20    21    1
    11    21    22    1
    12    22    25    1
    13    25    26   ar
    14    26    27   ar
    15    27    28   ar
    16    28    29   ar
    17    29    30   ar
    18    30    31    1
    19    30    32   ar
    20    32    33   ar
    21    33    34   ar
    22    22    23    1
    23    23    24    1
    24     7     9    1
    25     9    10   ar
    26    10    11   ar
    27    11    12   ar
    28    12    13   ar
    29    13    14   ar
    30    14    15   ar
    31    15    16   ar
    32    16    17   ar
    33    24    19    1
    34    17     9   ar
    35    34    25   ar
    36    16    11   ar
    37    34    28   ar
    38     4     5    1
@<TRIPOS>MOLECULE
*****
 34 38 0 0 0
SMALL
GASTEIGER

@<TRIPOS>ATOM
      1 C         140.8318  144.4501  160.2694 C.3     1  UNL1        0.0188
      2 C         140.2816  145.7617  160.7457 C.3     1  UNL1        0.0203
      3 C         139.5491  145.8375  162.0525 C.3     1  UNL1        0.0915
      4 N         138.2965  145.0381  162.2576 N.3     1  UNL1       -0.1789
      5 H         137.7012  145.5793  162.8846 H       1  UNL1        0.1488
      6 O         139.0982  144.1852  164.0268 O.2     1  UNL1       -0.1525
      7 S         138.3760  143.6519  162.8252 S.O2    1  UNL1        0.0659
      8 O         137.6538  143.1185  161.6235 O.2     1  UNL1       -0.1525
      9 C         138.4554  142.2657  163.3927 C.ar    1  UNL1        0.1514
     10 C         138.6410  141.0009  162.6078 C.ar    1  UNL1        0.0271
     11 C         138.6635  139.8544  163.5748 C.ar    1  UNL1        0.0079
     12 C         138.8182  138.3758  163.3751 C.ar    1  UNL1        0.0006
     13 C         138.8011  137.4535  164.5579 C.ar    1  UNL1        0.0000
     14 C         138.6294  138.0096  165.9403 C.ar    1  UNL1        0.0005
     15 C         138.4748  139.4882  166.1400 C.ar    1  UNL1        0.0065
     16 C         138.4918  140.4106  164.9572 C.ar    1  UNL1        0.0308
     17 S         138.3632  141.9009  164.8447 S.2     1  UNL1       -0.0673
     18 C         142.1743  143.9820  160.7474 C.3     1  UNL1        0.0721
     19 N         142.2765  143.1229  161.9727 N.3     1  UNL1       -0.2727
     20 C         142.4681  143.7561  163.3189 C.3     1  UNL1        0.0725
     21 C         142.5702  142.8969  164.5442 C.3     1  UNL1        0.0234
     22 C         142.4808  141.4044  164.4233 C.3     1  UNL1        0.0464
     23 C         142.2892  140.7713  163.0772 C.3     1  UNL1        0.0234
     24 C         142.1870  141.6304  161.8518 C.3     1  UNL1        0.0725
     25 C         142.5829  140.5452  165.6487 C.ar    1  UNL1        0.1003
     26 N         143.3814  139.2818  165.7755 N.ar    1  UNL1       -0.0814
     27 O         143.1964  138.7544  167.1675 O.2     1  UNL1       -0.3536
     28 C         142.2836  139.6919  167.9010 C.ar    1  UNL1        0.1787
     29 C         141.7488  139.6808  169.3023 C.ar    1  UNL1        0.0698
     30 C         140.8348  140.7764  169.7649 C.ar    1  UNL1        0.1433
     31 F         140.2999  140.7653  171.1663 F       1  UNL1       -0.2041
     32 C         140.4556  141.8833  168.8262 C.ar    1  UNL1        0.0299
     33 C         140.9904  141.8944  167.4248 C.ar    1  UNL1        0.0067
     34 C         141.9045  140.7988  166.9622 C.ar    1  UNL1        0.0540
@<TRIPOS>BOND
     1     6     7    2
     2     7     8    2
     3     7     4    1
     4     4     3    1
     5     3     2    1
     6     2     1    1
     7     1    18    1
     8    18    19    1
     9    19    20    1
    10    20    21    1
    11    21    22    1
    12    22    25    1
    13    25    26   ar
    14    26    27   ar
    15    27    28   ar
    16    28    29   ar
    17    29    30   ar
    18    30    31    1
    19    30    32   ar
    20    32    33   ar
    21    33    34   ar
    22    22    23    1
    23    23    24    1
    24     7     9    1
    25     9    10   ar
    26    10    11   ar
    27    11    12   ar
    28    12    13   ar
    29    13    14   ar
    30    14    15   ar
    31    15    16   ar
    32    16    17   ar
    33    24    19    1
    34    17     9   ar
    35    34    25   ar
    36    16    11   ar
    37    34    28   ar
    38     4     5    1
@<TRIPOS>MOLECULE
*****
 34 38 0 0 0
SMALL
GASTEIGER

@<TRIPOS>ATOM
      1 C         137.4777  139.9087  160.5932 C.3     1  UNL1        0.0188
      2 C         138.4053  140.2669  159.4701 C.3     1  UNL1        0.0203
      3 C         138.1311  141.4776  158.6281 C.3     1  UNL1        0.0915
      4 N         138.4319  142.8465  159.1625 N.3     1  UNL1       -0.1789
      5 H         138.6720  143.4294  158.3606 H       1  UNL1        0.1488
      6 O         138.4937  143.3141  161.2307 O.2     1  UNL1       -0.1525
      7 S         139.5222  143.0333  160.1756 S.O2    1  UNL1        0.0659
      8 O         140.5507  142.7525  159.1205 O.2     1  UNL1       -0.1525
      9 C         140.6125  143.2201  161.1887 C.ar    1  UNL1        0.1514
     10 C         141.5239  142.1492  161.7108 C.ar    1  UNL1        0.0271
     11 C         142.4575  142.7779  162.7023 C.ar    1  UNL1        0.0079
     12 C         143.5689  142.2100  163.5343 C.ar    1  UNL1        0.0006
     13 C         144.3459  143.1015  164.4570 C.ar    1  UNL1        0.0000
     14 C         144.0116  144.5609  164.5477 C.ar    1  UNL1        0.0005
     15 C         142.9001  145.1288  163.7157 C.ar    1  UNL1        0.0065
     16 C         142.1231  144.2373  162.7930 C.ar    1  UNL1        0.0308
     17 S         140.9828  144.5107  161.8575 S.2     1  UNL1       -0.0673
     18 C         137.8130  138.7685  161.5082 C.3     1  UNL1        0.0721
     19 N         138.2277  139.0399  162.9240 N.3     1  UNL1       -0.2727
     20 C         138.0118  140.3988  163.5214 C.3     1  UNL1        0.0725
     21 C         138.4265  140.6702  164.9371 C.3     1  UNL1        0.0234
     22 C         139.0572  139.5827  165.7555 C.3     1  UNL1        0.0464
     23 C         139.2731  138.2239  165.1581 C.3     1  UNL1        0.0234
     24 C         138.8584  137.9525  163.7424 C.3     1  UNL1        0.0725
     25 C         139.4719  139.8541  167.1713 C.ar    1  UNL1        0.1003
     26 N         138.7311  139.4282  168.4041 N.ar    1  UNL1       -0.0814
     27 O         139.5016  139.9100  169.5975 O.2     1  UNL1       -0.3536
     28 C         140.7186  140.6337  169.1022 C.ar    1  UNL1        0.1787
     29 C         141.8411  141.3196  169.8230 C.ar    1  UNL1        0.0698
     30 C         142.9452  141.9710  169.0442 C.ar    1  UNL1        0.1433
     31 F         144.0678  142.6570  169.7649 F       1  UNL1       -0.2041
     32 C         142.9268  141.9365  167.5447 C.ar    1  UNL1        0.0299
     33 C         141.8044  141.2505  166.8240 C.ar    1  UNL1        0.0067
     34 C         140.7002  140.5992  167.6028 C.ar    1  UNL1        0.0540
@<TRIPOS>BOND
     1     6     7    2
     2     7     8    2
     3     7     4    1
     4     4     3    1
     5     3     2    1
     6     2     1    1
     7     1    18    1
     8    18    19    1
     9    19    20    1
    10    20    21    1
    11    21    22    1
    12    22    25    1
    13    25    26   ar
    14    26    27   ar
    15    27    28   ar
    16    28    29   ar
    17    29    30   ar
    18    30    31    1
    19    30    32   ar
    20    32    33   ar
    21    33    34   ar
    22    22    23    1
    23    23    24    1
    24     7     9    1
    25     9    10   ar
    26    10    11   ar
    27    11    12   ar
    28    12    13   ar
    29    13    14   ar
    30    14    15   ar
    31    15    16   ar
    32    16    17   ar
    33    24    19    1
    34    17     9   ar
    35    34    25   ar
    36    16    11   ar
    37    34    28   ar
    38     4     5    1
@<TRIPOS>MOLECULE
*****
 34 38 0 0 0
SMALL
GASTEIGER

@<TRIPOS>ATOM
      1 C         139.8602  144.5348  157.4283 C.3     1  UNL1        0.0188
      2 C         140.8860  145.2442  158.2618 C.3     1  UNL1        0.0203
      3 C         140.7445  145.2807  159.7546 C.3     1  UNL1        0.0915
      4 N         141.9451  145.0640  160.6274 N.3     1  UNL1       -0.1789
      5 H         142.6649  144.6443  160.0390 H       1  UNL1        0.1488
      6 O         143.2143  144.6287  162.2704 O.2     1  UNL1       -0.1525
      7 S         141.8357  144.2085  161.8546 S.O2    1  UNL1        0.0659
      8 O         140.4571  143.7883  161.4388 O.2     1  UNL1       -0.1525
      9 C         141.7263  143.3530  163.0818 C.ar    1  UNL1        0.1514
     10 C         142.2626  141.9608  163.2368 C.ar    1  UNL1        0.0271
     11 C         141.9291  141.4869  164.6203 C.ar    1  UNL1        0.0079
     12 C         142.2055  140.1963  165.3331 C.ar    1  UNL1        0.0006
     13 C         141.7395  140.0052  166.7460 C.ar    1  UNL1        0.0000
     14 C         140.9971  141.1045  167.4462 C.ar    1  UNL1        0.0005
     15 C         140.7207  142.3951  166.7333 C.ar    1  UNL1        0.0065
     16 C         141.1867  142.5862  165.3204 C.ar    1  UNL1        0.0308
     17 S         141.0613  143.7396  164.3696 S.2     1  UNL1       -0.0673
     18 C         140.0146  143.0723  157.1333 C.3     1  UNL1        0.0721
     19 N         140.0221  142.0774  158.2559 N.3     1  UNL1       -0.2727
     20 C         138.7269  141.5824  158.8280 C.3     1  UNL1        0.0725
     21 C         138.7344  140.5875  159.9506 C.3     1  UNL1        0.0234
     22 C         140.0373  140.0877  160.5011 C.3     1  UNL1        0.0464
     23 C         141.3324  140.5827  159.9289 C.3     1  UNL1        0.0234
     24 C         141.3249  141.5776  158.8063 C.3     1  UNL1        0.0725
     25 C         140.0448  139.0928  161.6237 C.ar    1  UNL1        0.1003
     26 N         140.6971  137.7422  161.6005 N.ar    1  UNL1       -0.0814
     27 O         140.4567  137.0886  162.9290 O.2     1  UNL1       -0.3536
     28 C         139.6560  138.0352  163.7733 C.ar    1  UNL1        0.1787
     29 C         139.1257  137.9293  165.1724 C.ar    1  UNL1        0.0698
     30 C         138.3409  139.0620  165.7647 C.ar    1  UNL1        0.1433
     31 F         137.8106  138.9561  167.1639 F       1  UNL1       -0.2041
     32 C         138.0863  140.3007  164.9580 C.ar    1  UNL1        0.0299
     33 C         138.6165  140.4066  163.5589 C.ar    1  UNL1        0.0067
     34 C         139.4014  139.2739  162.9665 C.ar    1  UNL1        0.0540
@<TRIPOS>BOND
     1     6     7    2
     2     7     8    2
     3     7     4    1
     4     4     3    1
     5     3     2    1
     6     2     1    1
     7     1    18    1
     8    18    19    1
     9    19    20    1
    10    20    21    1
    11    21    22    1
    12    22    25    1
    13    25    26   ar
    14    26    27   ar
    15    27    28   ar
    16    28    29   ar
    17    29    30   ar
    18    30    31    1
    19    30    32   ar
    20    32    33   ar
    21    33    34   ar
    22    22    23    1
    23    23    24    1
    24     7     9    1
    25     9    10   ar
    26    10    11   ar
    27    11    12   ar
    28    12    13   ar
    29    13    14   ar
    30    14    15   ar
    31    15    16   ar
    32    16    17   ar
    33    24    19    1
    34    17     9   ar
    35    34    25   ar
    36    16    11   ar
    37    34    28   ar
    38     4     5    1
@<TRIPOS>MOLECULE
*****
 34 38 0 0 0
SMALL
GASTEIGER

@<TRIPOS>ATOM
      1 C         140.1366  145.4395  160.1960 C.3     1  UNL1        0.0188
      2 C         140.2672  144.6946  158.9006 C.3     1  UNL1        0.0203
      3 C         139.6795  143.3214  158.7625 C.3     1  UNL1        0.0915
      4 N         138.4072  142.9748  159.4775 N.3     1  UNL1       -0.1789
      5 H         138.0015  143.8536  159.7993 H       1  UNL1        0.1488
      6 O         138.9427  140.9453  159.7843 O.2     1  UNL1       -0.1525
      7 S         138.4389  142.0534  160.6607 S.O2    1  UNL1        0.0659
      8 O         137.9351  143.1616  161.5371 O.2     1  UNL1       -0.1525
      9 C         138.4706  141.1321  161.8439 C.ar    1  UNL1        0.1514
     10 C         138.0463  141.4761  163.2409 C.ar    1  UNL1        0.0271
     11 C         138.2456  140.2616  164.0983 C.ar    1  UNL1        0.0079
     12 C         137.9994  140.0109  165.5566 C.ar    1  UNL1        0.0006
     13 C         138.3005  138.6656  166.1477 C.ar    1  UNL1        0.0000
     14 C         138.8480  137.5709  165.2806 C.ar    1  UNL1        0.0005
     15 C         139.0942  137.8215  163.8223 C.ar    1  UNL1        0.0065
     16 C         138.7931  139.1668  163.2312 C.ar    1  UNL1        0.0308
     17 S         138.9321  139.7048  161.8378 S.2     1  UNL1       -0.0673
     18 C         141.2637  145.4262  161.1857 C.3     1  UNL1        0.0721
     19 N         141.3237  144.3605  162.2397 N.3     1  UNL1       -0.2727
     20 C         140.7225  144.6079  163.5914 C.3     1  UNL1        0.0725
     21 C         140.7826  143.5423  164.6454 C.3     1  UNL1        0.0234
     22 C         141.4440  142.2292  164.3476 C.3     1  UNL1        0.0464
     23 C         142.0452  141.9819  162.9958 C.3     1  UNL1        0.0234
     24 C         141.9851  143.0476  161.9419 C.3     1  UNL1        0.0725
     25 C         141.5041  141.1636  165.4015 C.ar    1  UNL1        0.1003
     26 N         141.8837  139.7288  165.1840 N.ar    1  UNL1       -0.0814
     27 O         141.8093  139.0242  166.5061 O.2     1  UNL1       -0.3536
     28 C         141.3837  140.0234  167.5407 C.ar    1  UNL1        0.1787
     29 C         141.1436  139.9002  169.0162 C.ar    1  UNL1        0.0698
     30 C         140.7148  141.0992  169.8090 C.ar    1  UNL1        0.1433
     31 F         140.4747  140.9759  171.2846 F       1  UNL1       -0.2041
     32 C         140.5261  142.4214  169.1263 C.ar    1  UNL1        0.0299
     33 C         140.7663  142.5447  167.6508 C.ar    1  UNL1        0.0067
     34 C         141.1950  141.3457  166.8580 C.ar    1  UNL1        0.0540
@<TRIPOS>BOND
     1     6     7    2
     2     7     8    2
     3     7     4    1
     4     4     3    1
     5     3     2    1
     6     2     1    1
     7     1    18    1
     8    18    19    1
     9    19    20    1
    10    20    21    1
    11    21    22    1
    12    22    25    1
    13    25    26   ar
    14    26    27   ar
    15    27    28   ar
    16    28    29   ar
    17    29    30   ar
    18    30    31    1
    19    30    32   ar
    20    32    33   ar
    21    33    34   ar
    22    22    23    1
    23    23    24    1
    24     7     9    1
    25     9    10   ar
    26    10    11   ar
    27    11    12   ar
    28    12    13   ar
    29    13    14   ar
    30    14    15   ar
    31    15    16   ar
    32    16    17   ar
    33    24    19    1
    34    17     9   ar
    35    34    25   ar
    36    16    11   ar
    37    34    28   ar
    38     4     5    1
@<TRIPOS>MOLECULE
*****
 34 38 0 0 0
SMALL
GASTEIGER

@<TRIPOS>ATOM
      1 C         141.1986  145.4950  159.7417 C.3     1  UNL1        0.0188
      2 C         139.9974  145.9565  160.5125 C.3     1  UNL1        0.0203
      3 C         140.0356  145.9901  162.0116 C.3     1  UNL1        0.0915
      4 N         141.3523  145.9521  162.7293 N.3     1  UNL1       -0.1789
      5 H         142.0382  146.3828  162.1092 H       1  UNL1        0.1488
      6 O         143.2222  144.9800  162.4876 O.2     1  UNL1       -0.1525
      7 S         141.9296  144.6391  163.1682 S.O2    1  UNL1        0.0659
      8 O         140.6371  144.2982  163.8487 O.2     1  UNL1       -0.1525
      9 C         142.5070  143.3261  163.6071 C.ar    1  UNL1        0.1514
     10 C         141.7932  142.2688  164.3962 C.ar    1  UNL1        0.0271
     11 C         142.7446  141.1291  164.6107 C.ar    1  UNL1        0.0079
     12 C         142.5938  139.8155  165.3191 C.ar    1  UNL1        0.0006
     13 C         143.7447  138.8549  165.3709 C.ar    1  UNL1        0.0000
     14 C         145.0464  139.2078  164.7144 C.ar    1  UNL1        0.0005
     15 C         145.1971  140.5214  164.0060 C.ar    1  UNL1        0.0065
     16 C         144.0463  141.4820  163.9542 C.ar    1  UNL1        0.0308
     17 S         143.8994  142.8399  163.3339 S.2     1  UNL1       -0.0673
     18 C         141.1886  144.1541  159.0695 C.3     1  UNL1        0.0721
     19 N         140.9752  142.9102  159.8803 N.3     1  UNL1       -0.2727
     20 C         139.6167  142.6012  160.4362 C.3     1  UNL1        0.0725
     21 C         139.4033  141.3574  161.2469 C.3     1  UNL1        0.0234
     22 C         140.5484  140.4225  161.5017 C.3     1  UNL1        0.0464
     23 C         141.9068  140.7316  160.9458 C.3     1  UNL1        0.0234
     24 C         142.1202  141.9754  160.1351 C.3     1  UNL1        0.0725
     25 C         140.3349  139.1786  162.3125 C.ar    1  UNL1        0.1003
     26 N         140.8641  137.8131  161.9880 N.ar    1  UNL1       -0.0814
     27 O         140.4110  136.8725  163.0650 O.2     1  UNL1       -0.3536
     28 C         139.6019  137.6567  164.0552 C.ar    1  UNL1        0.1787
     29 C         138.9019  137.2571  165.3202 C.ar    1  UNL1        0.0698
     30 C         138.1549  138.2828  166.1200 C.ar    1  UNL1        0.1433
     31 F         137.4548  137.8832  167.3851 F       1  UNL1       -0.2041
     32 C         138.1078  139.7081  165.6549 C.ar    1  UNL1        0.0299
     33 C         138.8079  140.1077  164.3899 C.ar    1  UNL1        0.0067
     34 C         139.5549  139.0820  163.5901 C.ar    1  UNL1        0.0540
@<TRIPOS>BOND
     1     6     7    2
     2     7     8    2
     3     7     4    1
     4     4     3    1
     5     3     2    1
     6     2     1    1
     7     1    18    1
     8    18    19    1
     9    19    20    1
    10    20    21    1
    11    21    22    1
    12    22    25    1
    13    25    26   ar
    14    26    27   ar
    15    27    28   ar
    16    28    29   ar
    17    29    30   ar
    18    30    31    1
    19    30    32   ar
    20    32    33   ar
    21    33    34   ar
    22    22    23    1
    23    23    24    1
    24     7     9    1
    25     9    10   ar
    26    10    11   ar
    27    11    12   ar
    28    12    13   ar
    29    13    14   ar
    30    14    15   ar
    31    15    16   ar
    32    16    17   ar
    33    24    19    1
    34    17     9   ar
    35    34    25   ar
    36    16    11   ar
    37    34    28   ar
    38     4     5    1
@<TRIPOS>MOLECULE
*****
 34 38 0 0 0
SMALL
GASTEIGER

@<TRIPOS>ATOM
      1 C         139.5971  144.4861  157.1762 C.3     1  UNL1        0.0188
      2 C         140.7726  145.3712  157.4678 C.3     1  UNL1        0.0203
      3 C         141.1238  145.7083  158.8866 C.3     1  UNL1        0.0915
      4 N         140.0935  145.5683  159.9678 N.3     1  UNL1       -0.1789
      5 H         139.7478  146.5068  160.1684 H       1  UNL1        0.1488
      6 O         139.0542  145.1187  161.7616 O.2     1  UNL1       -0.1525
      7 S         140.4666  144.9538  161.2843 S.O2    1  UNL1        0.0659
      8 O         141.8791  144.7890  160.8070 O.2     1  UNL1       -0.1525
      9 C         140.8398  144.3393  162.6008 C.ar    1  UNL1        0.1514
     10 C         142.2132  143.8951  163.0088 C.ar    1  UNL1        0.0271
     11 C         142.1272  143.3424  164.4006 C.ar    1  UNL1        0.0079
     12 C         143.1636  142.7589  165.3147 C.ar    1  UNL1        0.0006
     13 C         142.7734  142.2780  166.6808 C.ar    1  UNL1        0.0000
     14 C         141.3469  142.3805  167.1330 C.ar    1  UNL1        0.0005
     15 C         140.3105  142.9640  166.2189 C.ar    1  UNL1        0.0065
     16 C         140.7007  143.4449  164.8527 C.ar    1  UNL1        0.0308
     17 S         139.9050  144.0610  163.7404 S.2     1  UNL1       -0.0673
     18 C         139.7277  142.9978  157.3096 C.3     1  UNL1        0.0721
     19 N         139.7778  142.3682  158.6701 N.3     1  UNL1       -0.2727
     20 C         138.5404  142.3105  159.5159 C.3     1  UNL1        0.0725
     21 C         138.5906  141.6809  160.8765 C.3     1  UNL1        0.0234
     22 C         139.8783  141.1089  161.3912 C.3     1  UNL1        0.0464
     23 C         141.1156  141.1666  160.5453 C.3     1  UNL1        0.0234
     24 C         141.0654  141.7962  159.1848 C.3     1  UNL1        0.0725
     25 C         139.9284  140.4793  162.7517 C.ar    1  UNL1        0.1003
     26 N         138.7592  140.2599  163.6654 N.ar    1  UNL1       -0.0814
     27 O         139.2649  139.6036  164.9158 O.2     1  UNL1       -0.3536
     28 C         140.7466  139.4172  164.7749 C.ar    1  UNL1        0.1787
     29 C         141.7753  138.8246  165.6917 C.ar    1  UNL1        0.0698
     30 C         143.2141  138.7733  165.2710 C.ar    1  UNL1        0.1433
     31 F         144.2429  138.1807  166.1878 F       1  UNL1       -0.2041
     32 C         143.6243  139.3145  163.9335 C.ar    1  UNL1        0.0299
     33 C         142.5955  139.9071  163.0167 C.ar    1  UNL1        0.0067
     34 C         141.1567  139.9584  163.4374 C.ar    1  UNL1        0.0540
@<TRIPOS>BOND
     1     6     7    2
     2     7     8    2
     3     7     4    1
     4     4     3    1
     5     3     2    1
     6     2     1    1
     7     1    18    1
     8    18    19    1
     9    19    20    1
    10    20    21    1
    11    21    22    1
    12    22    25    1
    13    25    26   ar
    14    26    27   ar
    15    27    28   ar
    16    28    29   ar
    17    29    30   ar
    18    30    31    1
    19    30    32   ar
    20    32    33   ar
    21    33    34   ar
    22    22    23    1
    23    23    24    1
    24     7     9    1
    25     9    10   ar
    26    10    11   ar
    27    11    12   ar
    28    12    13   ar
    29    13    14   ar
    30    14    15   ar
    31    15    16   ar
    32    16    17   ar
    33    24    19    1
    34    17     9   ar
    35    34    25   ar
    36    16    11   ar
    37    34    28   ar
    38     4     5    1
@<TRIPOS>MOLECULE
*****
 34 38 0 0 0
SMALL
GASTEIGER

@<TRIPOS>ATOM
      1 C         139.9873  139.8938  158.9288 C.3     1  UNL1        0.0188
      2 C         140.7053  138.9732  157.9870 C.3     1  UNL1        0.0203
      3 C         142.1353  139.2404  157.6216 C.3     1  UNL1        0.0915
      4 N         143.2423  138.6582  158.4497 N.3     1  UNL1       -0.1789
      5 H         143.2659  137.6585  158.2487 H       1  UNL1        0.1488
      6 O         142.8307  137.3553  160.0723 O.2     1  UNL1       -0.1525
      7 S         143.2158  138.7992  159.9428 S.O2    1  UNL1        0.0659
      8 O         143.6010  140.2431  159.8134 O.2     1  UNL1       -0.1525
      9 C         143.1893  138.9401  161.4360 C.ar    1  UNL1        0.1514
     10 C         142.5135  138.0083  162.3977 C.ar    1  UNL1        0.0271
     11 C         142.7405  138.5299  163.7856 C.ar    1  UNL1        0.0079
     12 C         142.3095  138.0249  165.1307 C.ar    1  UNL1        0.0006
     13 C         142.6946  138.7741  166.3718 C.ar    1  UNL1        0.0000
     14 C         143.5108  140.0283  166.2679 C.ar    1  UNL1        0.0005
     15 C         143.9418  140.5333  164.9227 C.ar    1  UNL1        0.0065
     16 C         143.5566  139.7841  163.6817 C.ar    1  UNL1        0.0308
     17 S         143.8340  140.0377  162.2295 S.2     1  UNL1       -0.0673
     18 C         138.7378  139.4343  159.6199 C.3     1  UNL1        0.0721
     19 N         138.6783  139.4012  161.1183 N.3     1  UNL1       -0.2727
     20 C         138.3537  140.6497  161.8838 C.3     1  UNL1        0.0725
     21 C         138.2942  140.6166  163.3823 C.3     1  UNL1        0.0234
     22 C         138.5593  139.3350  164.1153 C.3     1  UNL1        0.0464
     23 C         138.8839  138.0866  163.3498 C.3     1  UNL1        0.0234
     24 C         138.9434  138.1197  161.8513 C.3     1  UNL1        0.0725
     25 C         138.4999  139.3019  165.6138 C.ar    1  UNL1        0.1003
     26 N         137.7006  138.3413  166.4434 N.ar    1  UNL1       -0.0814
     27 O         137.9360  138.6694  167.8880 O.2     1  UNL1       -0.3536
     28 C         138.8807  139.8328  167.9512 C.ar    1  UNL1        0.1787
     29 C         139.4687  140.5866  169.1070 C.ar    1  UNL1        0.0698
     30 C         140.4051  141.7314  168.8572 C.ar    1  UNL1        0.1433
     31 F         140.9931  142.4854  170.0131 F       1  UNL1       -0.2041
     32 C         140.7536  142.1224  167.4516 C.ar    1  UNL1        0.0299
     33 C         140.1657  141.3685  166.2958 C.ar    1  UNL1        0.0067
     34 C         139.2292  140.2237  166.5456 C.ar    1  UNL1        0.0540
@<TRIPOS>BOND
     1     6     7    2
     2     7     8    2
     3     7     4    1
     4     4     3    1
     5     3     2    1
     6     2     1    1
     7     1    18    1
     8    18    19    1
     9    19    20    1
    10    20    21    1
    11    21    22    1
    12    22    25    1
    13    25    26   ar
    14    26    27   ar
    15    27    28   ar
    16    28    29   ar
    17    29    30   ar
    18    30    31    1
    19    30    32   ar
    20    32    33   ar
    21    33    34   ar
    22    22    23    1
    23    23    24    1
    24     7     9    1
    25     9    10   ar
    26    10    11   ar
    27    11    12   ar
    28    12    13   ar
    29    13    14   ar
    30    14    15   ar
    31    15    16   ar
    32    16    17   ar
    33    24    19    1
    34    17     9   ar
    35    34    25   ar
    36    16    11   ar
    37    34    28   ar
    38     4     5    1
