@<TRIPOS>MOLECULE
*****
 37 40 0 0 0
SMALL
GASTEIGER

@<TRIPOS>ATOM
      1 C         138.2492  141.1305  162.4903 C.ar    1  UNL1        0.1533
      2 C         137.7156  140.2171  163.5537 C.ar    1  UNL1        0.0573
      3 C         138.3733  140.1699  164.9010 C.ar    1  UNL1        0.0856
      4 N         137.8395  139.2564  165.9645 N.ar    1  UNL1       -0.2435
      5 C         138.4972  139.2092  167.3118 C.ar    1  UNL1        0.1045
      6 C         139.6886  140.0753  167.5956 C.ar    1  UNL1        0.0856
      7 C         140.2222  140.9886  166.5322 C.ar    1  UNL1        0.0557
      8 C         139.5646  141.0359  165.1849 C.ar    1  UNL1        0.0327
      9 C         140.0982  141.9493  164.1214 C.ar    1  UNL1        0.0203
     10 C         139.4406  141.9965  162.7741 C.ar    1  UNL1        0.0825
     11 N         139.9743  142.9100  161.7107 N.pl3   1  UNL1       -0.3023
     12 C         140.7850  142.3507  160.5793 C.3     1  UNL1        0.1082
     13 C         141.3188  143.2640  159.5159 C.3     1  UNL1        0.0938
     14 N         141.0417  144.7367  159.5837 N.3     1  UNL1       -0.2686
     15 C         141.5754  145.6500  158.5203 C.3     1  UNL1        0.0897
     16 C         140.2310  145.2960  160.7151 C.3     1  UNL1        0.0938
     17 C         139.6973  144.3826  161.7786 C.3     1  UNL1        0.1082
     18 C         140.3463  140.0280  168.9429 C.2     1  UNL1        0.2455
     19 N         139.5083  139.9395  170.1839 N.am    1  UNL1       -0.3252
     20 O         141.8420  140.0692  169.0493 O.2     1  UNL1       -0.2703
     21 H         138.5267  139.9125  170.1141 H       1  UNL1        0.1453
     22 H         139.9400  139.9085  171.0682 H       1  UNL1        0.1453
     23 N         141.4136  141.8547  166.8161 N.pl3   1  UNL1       -0.3106
     24 H         141.3922  142.4904  167.5675 H       1  UNL1        0.1523
     25 C         142.6376  141.7522  165.9550 C.ar    1  UNL1        0.0763
     26 C         143.3298  142.9969  165.4843 C.ar    1  UNL1        0.0192
     27 C         144.5538  142.8945  164.6233 C.ar    1  UNL1        0.0311
     28 C         145.0856  141.5473  164.2329 C.ar    1  UNL1        0.1425
     29 F         146.3096  141.4449  163.3719 F       1  UNL1       -0.2041
     30 C         144.3934  140.3026  164.7037 C.ar    1  UNL1        0.0605
     31 C         143.1694  140.4051  165.5647 C.ar    1  UNL1        0.1556
     32 F         142.4772  139.1604  166.0354 F       1  UNL1       -0.2028
     33 O         137.5916  141.1778  161.1430 O.3     1  UNL1       -0.4715
     34 C         137.6213  139.9721  160.2511 C.3     1  UNL1        0.2374
     35 C         138.8731  139.1533  160.1384 C.3     1  UNL1        0.1894
     36 C         140.3175  137.9926  161.9596 C.3     1  UNL1        0.1743
     37 O         139.1055  138.0056  161.0760 O.3     1  UNL1       -0.3471
@<TRIPOS>BOND
     1    36    37    1
     2    37    35    1
     3    35    34    1
     4    34    33    1
     5    33     1    1
     6     1     2   ar
     7     2     3   ar
     8     3     4   ar
     9     4     5   ar
    10     5     6   ar
    11     6    18    1
    12    18    19   am
    13    18    20    2
    14     6     7   ar
    15     7    23    1
    16    23    25    1
    17    25    26   ar
    18    26    27   ar
    19    27    28   ar
    20    28    29    1
    21    28    30   ar
    22    30    31   ar
    23    31    32    1
    24     7     8   ar
    25     8     9   ar
    26     9    10   ar
    27    10    11    1
    28    11    12    1
    29    12    13    1
    30    13    14    1
    31    14    15    1
    32    14    16    1
    33    16    17    1
    34    10     1   ar
    35    17    11    1
    36     8     3   ar
    37    31    25   ar
    38    19    21    1
    39    19    22    1
    40    23    24    1
@<TRIPOS>MOLECULE
*****
 37 40 0 0 0
SMALL
GASTEIGER

@<TRIPOS>ATOM
      1 C         139.1932  138.7270  163.2060 C.ar    1  UNL1        0.1533
      2 C         138.5925  138.8401  164.5758 C.ar    1  UNL1        0.0573
      3 C         139.4371  139.2923  165.7301 C.ar    1  UNL1        0.0856
      4 N         138.8364  139.4054  167.1000 N.ar    1  UNL1       -0.2435
      5 C         139.6809  139.8576  168.2542 C.ar    1  UNL1        0.1045
      6 C         141.1261  140.1968  168.0386 C.ar    1  UNL1        0.0856
      7 C         141.7267  140.0837  166.6688 C.ar    1  UNL1        0.0557
      8 C         140.8822  139.6315  165.5145 C.ar    1  UNL1        0.0327
      9 C         141.4828  139.5184  164.1447 C.ar    1  UNL1        0.0203
     10 C         140.6383  139.0662  162.9905 C.ar    1  UNL1        0.0825
     11 N         141.2390  138.9531  161.6206 N.pl3   1  UNL1       -0.3023
     12 C         140.9847  140.0223  160.5996 C.3     1  UNL1        0.1082
     13 C         141.5853  139.9093  159.2298 C.3     1  UNL1        0.0938
     14 N         142.4403  138.7271  158.8809 N.3     1  UNL1       -0.2686
     15 C         143.0409  138.6141  157.5111 C.3     1  UNL1        0.0897
     16 C         142.6946  137.6580  159.9019 C.3     1  UNL1        0.0938
     17 C         142.0939  137.7710  161.2717 C.3     1  UNL1        0.1082
     18 C         141.9706  140.6490  169.1928 C.2     1  UNL1        0.2455
     19 N         141.9929  139.8521  170.4634 N.am    1  UNL1       -0.3252
     20 O         142.7929  141.8982  169.0764 O.2     1  UNL1       -0.2703
     21 H         141.4532  139.0323  170.5398 H       1  UNL1        0.1453
     22 H         142.5472  140.1490  171.2210 H       1  UNL1        0.1453
     23 N         143.1718  140.4229  166.4532 N.pl3   1  UNL1       -0.3106
     24 H         143.8694  139.9531  166.9651 H       1  UNL1        0.1523
     25 C         143.5543  141.4778  165.4577 C.ar    1  UNL1        0.0763
     26 C         142.8293  142.7908  165.4405 C.ar    1  UNL1        0.0192
     27 C         143.2116  143.8457  164.4450 C.ar    1  UNL1        0.0311
     28 C         144.3190  143.5876  163.4667 C.ar    1  UNL1        0.1425
     29 F         144.7014  144.6425  162.4712 F       1  UNL1       -0.2041
     30 C         145.0440  142.2745  163.4838 C.ar    1  UNL1        0.0605
     31 C         144.6616  141.2196  164.4794 C.ar    1  UNL1        0.1556
     32 F         145.3866  139.9066  164.4965 F       1  UNL1       -0.2028
     33 O         138.3486  138.2748  162.0518 O.3     1  UNL1       -0.4715
     34 C         137.4637  139.2551  161.3405 C.3     1  UNL1        0.2374
     35 C         137.6513  140.7278  161.5551 C.3     1  UNL1        0.1894
     36 C         137.6935  142.4418  163.5071 C.3     1  UNL1        0.1743
     37 O         136.9615  141.4132  162.6972 O.3     1  UNL1       -0.3471
@<TRIPOS>BOND
     1    36    37    1
     2    37    35    1
     3    35    34    1
     4    34    33    1
     5    33     1    1
     6     1     2   ar
     7     2     3   ar
     8     3     4   ar
     9     4     5   ar
    10     5     6   ar
    11     6    18    1
    12    18    19   am
    13    18    20    2
    14     6     7   ar
    15     7    23    1
    16    23    25    1
    17    25    26   ar
    18    26    27   ar
    19    27    28   ar
    20    28    29    1
    21    28    30   ar
    22    30    31   ar
    23    31    32    1
    24     7     8   ar
    25     8     9   ar
    26     9    10   ar
    27    10    11    1
    28    11    12    1
    29    12    13    1
    30    13    14    1
    31    14    15    1
    32    14    16    1
    33    16    17    1
    34    10     1   ar
    35    17    11    1
    36     8     3   ar
    37    31    25   ar
    38    19    21    1
    39    19    22    1
    40    23    24    1
@<TRIPOS>MOLECULE
*****
 37 40 0 0 0
SMALL
GASTEIGER

@<TRIPOS>ATOM
      1 C         143.4240  143.5417  164.2657 C.ar    1  UNL1        0.1533
      2 C         143.9811  143.3507  165.6452 C.ar    1  UNL1        0.0573
      3 C         143.1340  142.7315  166.7171 C.ar    1  UNL1        0.0856
      4 N         143.6912  142.5405  168.0967 N.ar    1  UNL1       -0.2435
      5 C         142.8441  141.9213  169.1686 C.ar    1  UNL1        0.1045
      6 C         141.4398  141.4930  168.8609 C.ar    1  UNL1        0.0856
      7 C         140.8827  141.6840  167.4813 C.ar    1  UNL1        0.0557
      8 C         141.7298  142.3032  166.4095 C.ar    1  UNL1        0.0327
      9 C         141.1727  142.4942  165.0299 C.ar    1  UNL1        0.0203
     10 C         142.0198  143.1134  163.9581 C.ar    1  UNL1        0.0825
     11 N         141.4626  143.3044  162.5785 N.pl3   1  UNL1       -0.3023
     12 C         141.0498  144.6713  162.1190 C.3     1  UNL1        0.1082
     13 C         140.4927  144.8623  160.7395 C.3     1  UNL1        0.0938
     14 N         140.3483  143.6864  159.8194 N.3     1  UNL1       -0.2686
     15 C         139.7911  143.8774  158.4399 C.3     1  UNL1        0.0897
     16 C         140.7611  142.3195  160.2790 C.3     1  UNL1        0.0938
     17 C         141.3183  142.1285  161.6585 C.3     1  UNL1        0.1082
     18 C         140.5927  140.8737  169.9327 C.2     1  UNL1        0.2455
     19 N         140.5618  141.4763  171.3060 N.am    1  UNL1       -0.3252
     20 O         139.7764  139.6518  169.6313 O.2     1  UNL1       -0.2703
     21 H         141.0975  142.2782  171.5038 H       1  UNL1        0.1453
     22 H         140.0058  141.0698  172.0095 H       1  UNL1        0.1453
     23 N         139.4784  141.2557  167.1737 N.pl3   1  UNL1       -0.3106
     24 H         138.7287  141.6079  167.7057 H       1  UNL1        0.1523
     25 C         139.2165  140.2907  166.0555 C.ar    1  UNL1        0.0763
     26 C         139.8524  138.9323  166.0727 C.ar    1  UNL1        0.0192
     27 C         139.5906  137.9674  164.9546 C.ar    1  UNL1        0.0311
     28 C         138.6928  138.3608  163.8191 C.ar    1  UNL1        0.1425
     29 F         138.4310  137.3959  162.7010 F       1  UNL1       -0.2041
     30 C         138.0569  139.7193  163.8018 C.ar    1  UNL1        0.0605
     31 C         138.3188  140.6842  164.9201 C.ar    1  UNL1        0.1556
     32 F         137.6829  142.0427  164.9028 F       1  UNL1       -0.2028
     33 O         144.2711  144.1610  163.1938 O.3     1  UNL1       -0.4715
     34 C         144.8467  143.3051  162.1047 C.3     1  UNL1        0.2374
     35 C         145.3439  141.9252  162.4188 C.3     1  UNL1        0.1894
     36 C         144.0420  139.7785  163.0875 C.3     1  UNL1        0.1743
     37 O         144.5273  140.7278  162.0323 O.3     1  UNL1       -0.3471
@<TRIPOS>BOND
     1    36    37    1
     2    37    35    1
     3    35    34    1
     4    34    33    1
     5    33     1    1
     6     1     2   ar
     7     2     3   ar
     8     3     4   ar
     9     4     5   ar
    10     5     6   ar
    11     6    18    1
    12    18    19   am
    13    18    20    2
    14     6     7   ar
    15     7    23    1
    16    23    25    1
    17    25    26   ar
    18    26    27   ar
    19    27    28   ar
    20    28    29    1
    21    28    30   ar
    22    30    31   ar
    23    31    32    1
    24     7     8   ar
    25     8     9   ar
    26     9    10   ar
    27    10    11    1
    28    11    12    1
    29    12    13    1
    30    13    14    1
    31    14    15    1
    32    14    16    1
    33    16    17    1
    34    10     1   ar
    35    17    11    1
    36     8     3   ar
    37    31    25   ar
    38    19    21    1
    39    19    22    1
    40    23    24    1
@<TRIPOS>MOLECULE
*****
 37 40 0 0 0
SMALL
GASTEIGER

@<TRIPOS>ATOM
      1 C         139.5608  138.2764  162.5572 C.ar    1  UNL1        0.1533
      2 C         139.5143  138.0963  161.0688 C.ar    1  UNL1        0.0573
      3 C         139.1653  139.2558  160.1835 C.ar    1  UNL1        0.0856
      4 N         139.1188  139.0756  158.6951 N.ar    1  UNL1       -0.2435
      5 C         138.7697  140.2351  157.8098 C.ar    1  UNL1        0.1045
      6 C         138.4673  141.5748  158.4130 C.ar    1  UNL1        0.0856
      7 C         138.5138  141.7550  159.9013 C.ar    1  UNL1        0.0557
      8 C         138.8628  140.5954  160.7866 C.ar    1  UNL1        0.0327
      9 C         138.9093  140.7756  162.2750 C.ar    1  UNL1        0.0203
     10 C         139.2583  139.6161  163.1603 C.ar    1  UNL1        0.0825
     11 N         139.3048  139.7963  164.6488 N.pl3   1  UNL1       -0.3023
     12 C         138.3328  139.0619  165.5239 C.3     1  UNL1        0.1082
     13 C         138.3793  139.2420  167.0122 C.3     1  UNL1        0.0938
     14 N         139.3978  140.1566  167.6256 N.3     1  UNL1       -0.2686
     15 C         139.4443  140.3368  169.1140 C.3     1  UNL1        0.0897
     16 C         140.3698  140.8911  166.7505 C.3     1  UNL1        0.0938
     17 C         140.3233  140.7109  165.2620 C.3     1  UNL1        0.1082
     18 C         138.1182  142.7343  157.5277 C.2     1  UNL1        0.2455
     19 N         136.8394  142.7212  156.7439 N.am    1  UNL1       -0.3252
     20 O         139.0481  143.9070  157.4262 O.2     1  UNL1       -0.2703
     21 H         136.2291  141.9516  156.8105 H       1  UNL1        0.1453
     22 H         136.6104  143.4822  156.1628 H       1  UNL1        0.1453
     23 N         138.2113  143.0946  160.5044 N.pl3   1  UNL1       -0.3106
     24 H         137.3424  143.5256  160.3356 H       1  UNL1        0.1523
     25 C         139.2327  143.7777  161.3648 C.ar    1  UNL1        0.0763
     26 C         140.6611  143.8568  160.9137 C.ar    1  UNL1        0.0192
     27 C         141.6826  144.5398  161.7740 C.ar    1  UNL1        0.0311
     28 C         141.2756  145.1439  163.0853 C.ar    1  UNL1        0.1425
     29 F         142.2970  145.8270  163.9456 F       1  UNL1       -0.2041
     30 C         139.8472  145.0649  163.5364 C.ar    1  UNL1        0.0605
     31 C         138.8258  144.3817  162.6760 C.ar    1  UNL1        0.1556
     32 F         137.3974  144.3027  163.1271 F       1  UNL1       -0.2028
     33 O         139.9098  137.1169  163.4425 O.3     1  UNL1       -0.4715
     34 C         141.2887  137.0042  164.0220 C.3     1  UNL1        0.2374
     35 C         142.3461  137.9973  163.6405 C.3     1  UNL1        0.1894
     36 C         143.9248  138.9901  161.8315 C.3     1  UNL1        0.1743
     37 O         143.0485  137.8753  162.3207 O.3     1  UNL1       -0.3471
@<TRIPOS>BOND
     1    36    37    1
     2    37    35    1
     3    35    34    1
     4    34    33    1
     5    33     1    1
     6     1     2   ar
     7     2     3   ar
     8     3     4   ar
     9     4     5   ar
    10     5     6   ar
    11     6    18    1
    12    18    19   am
    13    18    20    2
    14     6     7   ar
    15     7    23    1
    16    23    25    1
    17    25    26   ar
    18    26    27   ar
    19    27    28   ar
    20    28    29    1
    21    28    30   ar
    22    30    31   ar
    23    31    32    1
    24     7     8   ar
    25     8     9   ar
    26     9    10   ar
    27    10    11    1
    28    11    12    1
    29    12    13    1
    30    13    14    1
    31    14    15    1
    32    14    16    1
    33    16    17    1
    34    10     1   ar
    35    17    11    1
    36     8     3   ar
    37    31    25   ar
    38    19    21    1
    39    19    22    1
    40    23    24    1
@<TRIPOS>MOLECULE
*****
 37 40 0 0 0
SMALL
GASTEIGER

@<TRIPOS>ATOM
      1 C         140.0585  143.6160  165.0357 C.ar    1  UNL1        0.1533
      2 C         139.8259  143.5078  166.5136 C.ar    1  UNL1        0.0573
      3 C         140.5908  142.5018  167.3216 C.ar    1  UNL1        0.0856
      4 N         140.3581  142.3936  168.7995 N.ar    1  UNL1       -0.2435
      5 C         141.1230  141.3876  169.6075 C.ar    1  UNL1        0.1045
      6 C         142.1206  140.4897  168.9375 C.ar    1  UNL1        0.0856
      7 C         142.3532  140.5979  167.4597 C.ar    1  UNL1        0.0557
      8 C         141.5883  141.6039  166.6517 C.ar    1  UNL1        0.0327
      9 C         141.8209  141.7121  165.1738 C.ar    1  UNL1        0.0203
     10 C         141.0560  142.7181  164.3658 C.ar    1  UNL1        0.0825
     11 N         141.2887  142.8263  162.8879 N.pl3   1  UNL1       -0.3023
     12 C         141.0473  141.6402  162.0019 C.3     1  UNL1        0.1082
     13 C         141.2799  141.7483  160.5240 C.3     1  UNL1        0.0938
     14 N         141.7540  143.0425  159.9321 N.3     1  UNL1       -0.2686
     15 C         141.9866  143.1506  158.4542 C.3     1  UNL1        0.0897
     16 C         141.9955  144.2286  160.8181 C.3     1  UNL1        0.0938
     17 C         141.7628  144.1204  162.2960 C.3     1  UNL1        0.1082
     18 C         142.8855  139.4837  169.7455 C.2     1  UNL1        0.2455
     19 N         143.3619  139.8346  171.1239 N.am    1  UNL1       -0.3252
     20 O         143.1740  138.1267  169.1751 O.2     1  UNL1       -0.2703
     21 H         143.1725  140.7252  171.4982 H       1  UNL1        0.1453
     22 H         143.8639  139.1743  171.6542 H       1  UNL1        0.1453
     23 N         143.3507  139.7001  166.7898 N.pl3   1  UNL1       -0.3106
     24 H         144.2086  139.5021  167.2304 H       1  UNL1        0.1523
     25 C         143.0412  139.1038  165.4486 C.ar    1  UNL1        0.0763
     26 C         141.8228  138.2470  165.2719 C.ar    1  UNL1        0.0192
     27 C         141.5132  137.6507  163.9308 C.ar    1  UNL1        0.0311
     28 C         142.4221  137.9113  162.7662 C.ar    1  UNL1        0.1425
     29 F         142.1126  137.3151  161.4251 F       1  UNL1       -0.2041
     30 C         143.6406  138.7681  162.9429 C.ar    1  UNL1        0.0605
     31 C         143.9501  139.3644  164.2842 C.ar    1  UNL1        0.1556
     32 F         145.1686  140.2212  164.4608 F       1  UNL1       -0.2028
     33 O         139.2936  144.6220  164.2277 O.3     1  UNL1       -0.4715
     34 C         137.9445  144.2702  163.6745 C.3     1  UNL1        0.2374
     35 C         137.8372  143.4193  162.4438 C.3     1  UNL1        0.1894
     36 C         137.7031  141.0491  163.4994 C.3     1  UNL1        0.1743
     37 O         137.1944  142.0662  162.5212 O.3     1  UNL1       -0.3471
@<TRIPOS>BOND
     1    36    37    1
     2    37    35    1
     3    35    34    1
     4    34    33    1
     5    33     1    1
     6     1     2   ar
     7     2     3   ar
     8     3     4   ar
     9     4     5   ar
    10     5     6   ar
    11     6    18    1
    12    18    19   am
    13    18    20    2
    14     6     7   ar
    15     7    23    1
    16    23    25    1
    17    25    26   ar
    18    26    27   ar
    19    27    28   ar
    20    28    29    1
    21    28    30   ar
    22    30    31   ar
    23    31    32    1
    24     7     8   ar
    25     8     9   ar
    26     9    10   ar
    27    10    11    1
    28    11    12    1
    29    12    13    1
    30    13    14    1
    31    14    15    1
    32    14    16    1
    33    16    17    1
    34    10     1   ar
    35    17    11    1
    36     8     3   ar
    37    31    25   ar
    38    19    21    1
    39    19    22    1
    40    23    24    1
@<TRIPOS>MOLECULE
*****
 37 40 0 0 0
SMALL
GASTEIGER

@<TRIPOS>ATOM
      1 C         139.1821  143.2080  163.9620 C.ar    1  UNL1        0.1533
      2 C         139.4825  143.5517  165.3908 C.ar    1  UNL1        0.0573
      3 C         140.1522  142.5456  166.2793 C.ar    1  UNL1        0.0856
      4 N         140.4526  142.8893  167.7082 N.ar    1  UNL1       -0.2435
      5 C         141.1222  141.8833  168.5968 C.ar    1  UNL1        0.1045
      6 C         141.4914  140.5335  168.0564 C.ar    1  UNL1        0.0856
      7 C         141.1909  140.1898  166.6276 C.ar    1  UNL1        0.0557
      8 C         140.5213  141.1959  165.7391 C.ar    1  UNL1        0.0327
      9 C         140.2208  140.8522  164.3102 C.ar    1  UNL1        0.0203
     10 C         139.5512  141.8583  163.4217 C.ar    1  UNL1        0.0825
     11 N         139.2507  141.5146  161.9928 N.pl3   1  UNL1       -0.3023
     12 C         140.1835  141.9544  160.9036 C.3     1  UNL1        0.1082
     13 C         139.8831  141.6107  159.4747 C.3     1  UNL1        0.0938
     14 N         138.6498  140.8271  159.1351 N.3     1  UNL1       -0.2686
     15 C         138.3494  140.4835  157.7063 C.3     1  UNL1        0.0897
     16 C         137.7171  140.3873  160.2244 C.3     1  UNL1        0.0938
     17 C         138.0176  140.7310  161.6533 C.3     1  UNL1        0.1082
     18 C         142.1610  139.5275  168.9449 C.2     1  UNL1        0.2455
     19 N         141.7225  139.3773  170.3715 N.am    1  UNL1       -0.3252
     20 O         143.2692  138.6716  168.4068 O.2     1  UNL1       -0.2703
     21 H         140.9952  139.9390  170.7246 H       1  UNL1        0.1453
     22 H         142.1620  138.7170  170.9546 H       1  UNL1        0.1453
     23 N         141.5600  138.8401  166.0873 N.pl3   1  UNL1       -0.3106
     24 H         141.3058  138.0264  166.5797 H       1  UNL1        0.1523
     25 C         142.3166  138.7301  164.7966 C.ar    1  UNL1        0.0763
     26 C         143.6326  139.4319  164.6366 C.ar    1  UNL1        0.0192
     27 C         144.3891  139.3219  163.3460 C.ar    1  UNL1        0.0311
     28 C         143.8296  138.5102  162.2155 C.ar    1  UNL1        0.1425
     29 F         144.5861  138.4002  160.9249 F       1  UNL1       -0.2041
     30 C         142.5135  137.8084  162.3755 C.ar    1  UNL1        0.0605
     31 C         141.7570  137.9184  163.6662 C.ar    1  UNL1        0.1556
     32 F         140.4410  137.2167  163.8263 F       1  UNL1       -0.2028
     33 O         138.5124  144.2140  163.0735 O.3     1  UNL1       -0.4715
     34 C         139.2241  145.4827  162.7075 C.3     1  UNL1        0.2374
     35 C         140.4107  145.4395  161.7910 C.3     1  UNL1        0.1894
     36 C         142.2349  145.2859  163.6346 C.3     1  UNL1        0.1743
     37 O         141.7183  144.8928  162.2823 O.3     1  UNL1       -0.3471
@<TRIPOS>BOND
     1    36    37    1
     2    37    35    1
     3    35    34    1
     4    34    33    1
     5    33     1    1
     6     1     2   ar
     7     2     3   ar
     8     3     4   ar
     9     4     5   ar
    10     5     6   ar
    11     6    18    1
    12    18    19   am
    13    18    20    2
    14     6     7   ar
    15     7    23    1
    16    23    25    1
    17    25    26   ar
    18    26    27   ar
    19    27    28   ar
    20    28    29    1
    21    28    30   ar
    22    30    31   ar
    23    31    32    1
    24     7     8   ar
    25     8     9   ar
    26     9    10   ar
    27    10    11    1
    28    11    12    1
    29    12    13    1
    30    13    14    1
    31    14    15    1
    32    14    16    1
    33    16    17    1
    34    10     1   ar
    35    17    11    1
    36     8     3   ar
    37    31    25   ar
    38    19    21    1
    39    19    22    1
    40    23    24    1
@<TRIPOS>MOLECULE
*****
 37 40 0 0 0
SMALL
GASTEIGER

@<TRIPOS>ATOM
      1 C         144.0702  139.7488  162.8731 C.ar    1  UNL1        0.1533
      2 C         144.3039  139.4346  161.4252 C.ar    1  UNL1        0.0573
      3 C         143.1383  139.1907  160.5130 C.ar    1  UNL1        0.0856
      4 N         143.3721  138.8764  159.0650 N.ar    1  UNL1       -0.2435
      5 C         142.2065  138.6325  158.1529 C.ar    1  UNL1        0.1045
      6 C         140.8072  138.7028  158.6888 C.ar    1  UNL1        0.0856
      7 C         140.5735  139.0171  160.1367 C.ar    1  UNL1        0.0557
      8 C         141.7391  139.2610  161.0489 C.ar    1  UNL1        0.0327
      9 C         141.5054  139.5752  162.4968 C.ar    1  UNL1        0.0203
     10 C         142.6710  139.8192  163.4089 C.ar    1  UNL1        0.0825
     11 N         142.4373  140.1334  164.8569 N.pl3   1  UNL1       -0.3023
     12 C         141.8830  141.4694  165.2544 C.3     1  UNL1        0.1082
     13 C         141.6492  141.7837  166.7024 C.3     1  UNL1        0.0938
     14 N         141.9698  140.7620  167.7529 N.3     1  UNL1       -0.2686
     15 C         141.7361  141.0763  169.2008 C.3     1  UNL1        0.0897
     16 C         142.5241  139.4261  167.3554 C.3     1  UNL1        0.0938
     17 C         142.7578  139.1118  165.9074 C.3     1  UNL1        0.1082
     18 C         139.6416  138.4589  157.7767 C.2     1  UNL1        0.2455
     19 N         139.5729  137.1971  156.9685 N.am    1  UNL1       -0.3252
     20 O         138.5447  139.4768  157.6728 O.2     1  UNL1       -0.2703
     21 H         140.2928  136.5291  157.0367 H       1  UNL1        0.1453
     22 H         138.8079  137.0371  156.3698 H       1  UNL1        0.1453
     23 N         139.1743  139.0874  160.6726 N.pl3   1  UNL1       -0.3106
     24 H         138.5826  138.3031  160.6085 H       1  UNL1        0.1523
     25 C         138.6765  140.3527  161.3060 C.ar    1  UNL1        0.0763
     26 C         138.8202  141.6598  160.5842 C.ar    1  UNL1        0.0192
     27 C         138.3224  142.9250  161.2177 C.ar    1  UNL1        0.0311
     28 C         137.6808  142.8833  162.5729 C.ar    1  UNL1        0.1425
     29 F         137.1830  144.1486  163.2063 F       1  UNL1       -0.2041
     30 C         137.5371  141.5763  163.2947 C.ar    1  UNL1        0.0605
     31 C         138.0349  140.3110  162.6612 C.ar    1  UNL1        0.1556
     32 F         137.8912  139.0039  163.3830 F       1  UNL1       -0.2028
     33 O         145.2358  139.9927  163.7852 O.3     1  UNL1       -0.4715
     34 C         145.8472  141.3597  163.8718 C.3     1  UNL1        0.2374
     35 C         144.9869  142.5777  163.7097 C.3     1  UNL1        0.1894
     36 C         143.4025  143.2085  161.7496 C.3     1  UNL1        0.1743
     37 O         144.7772  143.1722  162.3485 O.3     1  UNL1       -0.3471
@<TRIPOS>BOND
     1    36    37    1
     2    37    35    1
     3    35    34    1
     4    34    33    1
     5    33     1    1
     6     1     2   ar
     7     2     3   ar
     8     3     4   ar
     9     4     5   ar
    10     5     6   ar
    11     6    18    1
    12    18    19   am
    13    18    20    2
    14     6     7   ar
    15     7    23    1
    16    23    25    1
    17    25    26   ar
    18    26    27   ar
    19    27    28   ar
    20    28    29    1
    21    28    30   ar
    22    30    31   ar
    23    31    32    1
    24     7     8   ar
    25     8     9   ar
    26     9    10   ar
    27    10    11    1
    28    11    12    1
    29    12    13    1
    30    13    14    1
    31    14    15    1
    32    14    16    1
    33    16    17    1
    34    10     1   ar
    35    17    11    1
    36     8     3   ar
    37    31    25   ar
    38    19    21    1
    39    19    22    1
    40    23    24    1
@<TRIPOS>MOLECULE
*****
 37 40 0 0 0
SMALL
GASTEIGER

@<TRIPOS>ATOM
      1 C         142.9520  138.8115  163.3114 C.ar    1  UNL1        0.1533
      2 C         143.5581  138.6557  164.6745 C.ar    1  UNL1        0.0573
      3 C         142.7966  139.0976  165.8889 C.ar    1  UNL1        0.0856
      4 N         143.4029  138.9417  167.2522 N.ar    1  UNL1       -0.2435
      5 C         142.6414  139.3836  168.4666 C.ar    1  UNL1        0.1045
      6 C         141.2736  139.9813  168.3178 C.ar    1  UNL1        0.0856
      7 C         140.6675  140.1372  166.9546 C.ar    1  UNL1        0.0557
      8 C         141.4290  139.6953  165.7402 C.ar    1  UNL1        0.0327
      9 C         140.8228  139.8511  164.3771 C.ar    1  UNL1        0.0203
     10 C         141.5843  139.4092  163.1626 C.ar    1  UNL1        0.0825
     11 N         140.9781  139.5650  161.7994 N.pl3   1  UNL1       -0.3023
     12 C         140.4255  138.3686  161.0831 C.3     1  UNL1        0.1082
     13 C         139.8193  138.5243  159.7200 C.3     1  UNL1        0.0938
     14 N         139.7656  139.8767  159.0731 N.3     1  UNL1       -0.2686
     15 C         139.1594  140.0325  157.7099 C.3     1  UNL1        0.0897
     16 C         140.3182  141.0732  159.7894 C.3     1  UNL1        0.0938
     17 C         140.9244  140.9173  161.1526 C.3     1  UNL1        0.1082
     18 C         140.5121  140.4232  169.5322 C.2     1  UNL1        0.2455
     19 N         140.3844  139.5061  170.7122 N.am    1  UNL1       -0.3252
     20 O         139.8783  141.7823  169.5666 O.2     1  UNL1       -0.2703
     21 H         140.8004  138.6141  170.6897 H       1  UNL1        0.1453
     22 H         139.8846  139.7961  171.5093 H       1  UNL1        0.1453
     23 N         139.2998  140.7349  166.8059 N.pl3   1  UNL1       -0.3106
     24 H         138.5523  140.3948  167.3489 H       1  UNL1        0.1523
     25 C         139.0710  141.8507  165.8298 C.ar    1  UNL1        0.0763
     26 C         139.7554  143.1709  166.0261 C.ar    1  UNL1        0.0192
     27 C         139.5266  144.2867  165.0501 C.ar    1  UNL1        0.0311
     28 C         138.6134  144.0823  163.8777 C.ar    1  UNL1        0.1425
     29 F         138.3847  145.1981  162.9017 F       1  UNL1       -0.2041
     30 C         137.9290  142.7620  163.6814 C.ar    1  UNL1        0.0605
     31 C         138.1578  141.6462  164.6575 C.ar    1  UNL1        0.1556
     32 F         137.4734  140.3259  164.4613 F       1  UNL1       -0.2028
     33 O         143.7135  138.3696  162.0969 O.3     1  UNL1       -0.4715
     34 C         144.4276  139.3811  161.2503 C.3     1  UNL1        0.2374
     35 C         144.4007  140.8316  161.6317 C.3     1  UNL1        0.1894
     36 C         145.6607  141.5846  163.7754 C.3     1  UNL1        0.1743
     37 O         145.5983  141.4584  162.2820 O.3     1  UNL1       -0.3471
@<TRIPOS>BOND
     1    36    37    1
     2    37    35    1
     3    35    34    1
     4    34    33    1
     5    33     1    1
     6     1     2   ar
     7     2     3   ar
     8     3     4   ar
     9     4     5   ar
    10     5     6   ar
    11     6    18    1
    12    18    19   am
    13    18    20    2
    14     6     7   ar
    15     7    23    1
    16    23    25    1
    17    25    26   ar
    18    26    27   ar
    19    27    28   ar
    20    28    29    1
    21    28    30   ar
    22    30    31   ar
    23    31    32    1
    24     7     8   ar
    25     8     9   ar
    26     9    10   ar
    27    10    11    1
    28    11    12    1
    29    12    13    1
    30    13    14    1
    31    14    15    1
    32    14    16    1
    33    16    17    1
    34    10     1   ar
    35    17    11    1
    36     8     3   ar
    37    31    25   ar
    38    19    21    1
    39    19    22    1
    40    23    24    1
@<TRIPOS>MOLECULE
*****
 37 40 0 0 0
SMALL
GASTEIGER

@<TRIPOS>ATOM
      1 C         138.6812  140.6659  162.1389 C.ar    1  UNL1        0.1533
      2 C         138.2897  141.0506  160.7430 C.ar    1  UNL1        0.0573
      3 C         138.9678  142.2039  160.0647 C.ar    1  UNL1        0.0856
      4 N         138.5763  142.5886  158.6687 N.ar    1  UNL1       -0.2435
      5 C         139.2545  143.7418  157.9904 C.ar    1  UNL1        0.1045
      6 C         140.3242  144.5104  158.7081 C.ar    1  UNL1        0.0856
      7 C         140.7157  144.1257  160.1040 C.ar    1  UNL1        0.0557
      8 C         140.0375  142.9724  160.7823 C.ar    1  UNL1        0.0327
      9 C         140.4290  142.5877  162.1783 C.ar    1  UNL1        0.0203
     10 C         139.7508  141.4345  162.8566 C.ar    1  UNL1        0.0825
     11 N         140.1424  141.0498  164.2526 N.pl3   1  UNL1       -0.3023
     12 C         141.5359  140.5727  164.5361 C.3     1  UNL1        0.1082
     13 C         141.9275  140.1880  165.9320 C.3     1  UNL1        0.0938
     14 N         140.9255  140.2805  167.0445 N.3     1  UNL1       -0.2686
     15 C         141.3171  139.8958  168.4404 C.3     1  UNL1        0.0897
     16 C         139.5320  140.7576  166.7610 C.3     1  UNL1        0.0938
     17 C         139.1404  141.1423  165.3650 C.3     1  UNL1        0.1082
     18 C         141.0024  145.6636  158.0298 C.2     1  UNL1        0.2455
     19 N         140.2011  146.6220  157.1995 N.am    1  UNL1       -0.3252
     20 O         142.4819  145.8585  158.1818 O.2     1  UNL1       -0.2703
     21 H         139.2301  146.4941  157.0997 H       1  UNL1        0.1453
     22 H         140.6462  147.3789  156.7543 H       1  UNL1        0.1453
     23 N         141.7854  144.8942  160.8217 N.pl3   1  UNL1       -0.3106
     24 H         141.7917  145.8781  160.7874 H       1  UNL1        0.1523
     25 C         142.8455  144.1637  161.5916 C.ar    1  UNL1        0.0763
     26 C         143.6878  143.1270  160.9093 C.ar    1  UNL1        0.0192
     27 C         144.7478  142.3965  161.6791 C.ar    1  UNL1        0.0311
     28 C         144.9655  142.7027  163.1313 C.ar    1  UNL1        0.1425
     29 F         146.0256  141.9723  163.9012 F       1  UNL1       -0.2041
     30 C         144.1232  143.7395  163.8136 C.ar    1  UNL1        0.0605
     31 C         143.0631  144.4700  163.0437 C.ar    1  UNL1        0.1556
     32 F         142.2207  145.5068  163.7260 F       1  UNL1       -0.2028
     33 O         138.0030  139.5127  162.8172 O.3     1  UNL1       -0.4715
     34 C         138.5071  138.1160  162.6052 C.3     1  UNL1        0.2374
     35 C         139.4797  137.5142  163.5757 C.3     1  UNL1        0.1894
     36 C         141.4013  137.8532  161.8603 C.3     1  UNL1        0.1743
     37 O         140.9278  137.3880  163.2054 O.3     1  UNL1       -0.3471
@<TRIPOS>BOND
     1    36    37    1
     2    37    35    1
     3    35    34    1
     4    34    33    1
     5    33     1    1
     6     1     2   ar
     7     2     3   ar
     8     3     4   ar
     9     4     5   ar
    10     5     6   ar
    11     6    18    1
    12    18    19   am
    13    18    20    2
    14     6     7   ar
    15     7    23    1
    16    23    25    1
    17    25    26   ar
    18    26    27   ar
    19    27    28   ar
    20    28    29    1
    21    28    30   ar
    22    30    31   ar
    23    31    32    1
    24     7     8   ar
    25     8     9   ar
    26     9    10   ar
    27    10    11    1
    28    11    12    1
    29    12    13    1
    30    13    14    1
    31    14    15    1
    32    14    16    1
    33    16    17    1
    34    10     1   ar
    35    17    11    1
    36     8     3   ar
    37    31    25   ar
    38    19    21    1
    39    19    22    1
    40    23    24    1
