@<TRIPOS>MOLECULE
*****
 18 20 0 0 0
SMALL
GASTEIGER

@<TRIPOS>ATOM
      1 C         141.9132  142.4766  165.8775 C.3     1  UNL1        0.0992
      2 CL        138.5165  140.1254  170.2289 Cl      1  UNL1       -0.0814
      3 C         139.3657  140.7132  169.1410 C.ar    1  UNL1        0.0682
      4 C         139.5366  139.9796  167.8439 C.ar    1  UNL1        0.0120
      5 C         140.3858  140.5674  166.7561 C.ar    1  UNL1       -0.0020
      6 C         141.0640  141.8888  166.9653 C.ar    1  UNL1       -0.0052
      7 C         140.8931  142.6224  168.2625 C.ar    1  UNL1        0.0093
      8 C         140.0439  142.0346  169.3503 C.ar    1  UNL1        0.0679
      9 CL        139.8731  142.7682  170.6475 Cl      1  UNL1       -0.0814
     10 N         141.3449  143.5226  164.9650 N.3     1  UNL1       -0.2691
     11 C         142.2411  144.2478  164.0052 C.3     1  UNL1        0.0894
     12 C         142.1219  144.7049  162.5815 C.3     1  UNL1        0.0862
     13 N         143.5084  145.2733  162.6480 N.3     1  UNL1       -0.2951
     14 C         143.6276  144.8163  164.0717 C.3     1  UNL1        0.0862
     15 H         143.5495  146.2858  162.5308 H       1  UNL1        0.1233
     16 C         139.8804  143.8436  165.0121 C.3     1  UNL1        0.0579
     17 C         138.7675  144.7846  165.3671 C.3     1  UNL1        0.0173
     18 C         138.4567  143.4585  164.7387 C.3     1  UNL1        0.0173
@<TRIPOS>BOND
     1     2     3    1
     2     3     4   ar
     3     4     5   ar
     4     5     6   ar
     5     6     1    1
     6     1    10    1
     7    10    16    1
     8    16    17    1
     9    17    18    1
    10    10    11    1
    11    11    12    1
    12    12    13    1
    13    13    14    1
    14     6     7   ar
    15     7     8   ar
    16     8     9    1
    17     8     3   ar
    18    18    16    1
    19    14    11    1
    20    13    15    1
@<TRIPOS>MOLECULE
*****
 18 20 0 0 0
SMALL
GASTEIGER

@<TRIPOS>ATOM
      1 C         141.4857  142.5698  165.7388 C.3     1  UNL1        0.0992
      2 CL        137.7325  137.9941  166.7268 Cl      1  UNL1       -0.0814
      3 C         138.6708  139.1380  166.4798 C.ar    1  UNL1        0.0682
      4 C         139.1962  139.9396  167.6336 C.ar    1  UNL1        0.0120
      5 C         140.1345  141.0835  167.3866 C.ar    1  UNL1       -0.0020
      6 C         140.5474  141.4259  165.9858 C.ar    1  UNL1       -0.0052
      7 C         140.0220  140.6243  164.8320 C.ar    1  UNL1        0.0093
      8 C         139.0837  139.4803  165.0790 C.ar    1  UNL1        0.0679
      9 CL        138.5583  138.6787  163.9251 Cl      1  UNL1       -0.0814
     10 N         141.0721  143.6989  164.8423 N.3     1  UNL1       -0.2691
     11 C         142.0608  144.2990  163.8870 C.3     1  UNL1        0.0894
     12 C         143.3592  145.0366  164.0287 C.3     1  UNL1        0.0862
     13 N         143.4591  145.1476  162.5362 N.3     1  UNL1       -0.2951
     14 C         142.1606  144.4101  162.3944 C.3     1  UNL1        0.0862
     15 H         144.2605  144.6606  162.1350 H       1  UNL1        0.1233
     16 C         139.6697  144.2281  164.9009 C.3     1  UNL1        0.0579
     17 C         138.3169  144.3946  164.2747 C.3     1  UNL1        0.0173
     18 C         138.5937  144.9781  165.6286 C.3     1  UNL1        0.0173
@<TRIPOS>BOND
     1     2     3    1
     2     3     4   ar
     3     4     5   ar
     4     5     6   ar
     5     6     1    1
     6     1    10    1
     7    10    16    1
     8    16    17    1
     9    17    18    1
    10    10    11    1
    11    11    12    1
    12    12    13    1
    13    13    14    1
    14     6     7   ar
    15     7     8   ar
    16     8     9    1
    17     8     3   ar
    18    18    16    1
    19    14    11    1
    20    13    15    1
@<TRIPOS>MOLECULE
*****
 18 20 0 0 0
SMALL
GASTEIGER

@<TRIPOS>ATOM
      1 C         137.8435  139.9191  163.3899 C.3     1  UNL1        0.0992
      2 CL        139.4138  145.6416  162.5026 Cl      1  UNL1       -0.0814
      3 C         139.0212  144.2110  162.7244 C.ar    1  UNL1        0.0682
      4 C         139.1310  143.2206  161.6032 C.ar    1  UNL1        0.0120
      5 C         138.7384  141.7900  161.8251 C.ar    1  UNL1       -0.0020
      6 C         138.2360  141.3497  163.1681 C.ar    1  UNL1       -0.0052
      7 C         138.1262  142.3401  164.2892 C.ar    1  UNL1        0.0093
      8 C         138.5188  143.7707  164.0674 C.ar    1  UNL1        0.0679
      9 CL        138.4089  144.7611  165.1887 Cl      1  UNL1       -0.0814
     10 N         138.6906  139.0345  164.2558 N.3     1  UNL1       -0.2691
     11 C         139.7586  138.1811  163.6383 C.3     1  UNL1        0.0894
     12 C         140.8487  137.2975  164.1683 C.3     1  UNL1        0.0862
     13 N         141.2688  136.9741  162.7651 N.3     1  UNL1       -0.2951
     14 C         140.1787  137.8576  162.2351 C.3     1  UNL1        0.0862
     15 H         141.1657  135.9904  162.5159 H       1  UNL1        0.1233
     16 C         138.4699  139.0033  165.7391 C.3     1  UNL1        0.0579
     17 C         138.8547  139.4472  167.1193 C.3     1  UNL1        0.0173
     18 C         137.7030  138.5054  166.9281 C.3     1  UNL1        0.0173
@<TRIPOS>BOND
     1     2     3    1
     2     3     4   ar
     3     4     5   ar
     4     5     6   ar
     5     6     1    1
     6     1    10    1
     7    10    16    1
     8    16    17    1
     9    17    18    1
    10    10    11    1
    11    11    12    1
    12    12    13    1
    13    13    14    1
    14     6     7   ar
    15     7     8   ar
    16     8     9    1
    17     8     3   ar
    18    18    16    1
    19    14    11    1
    20    13    15    1
@<TRIPOS>MOLECULE
*****
 18 20 0 0 0
SMALL
GASTEIGER

@<TRIPOS>ATOM
      1 C         141.5350  142.0336  165.1771 C.3     1  UNL1        0.0992
      2 CL        137.3868  138.2407  167.2761 Cl      1  UNL1       -0.0814
      3 C         138.4238  139.1889  166.7514 C.ar    1  UNL1        0.0682
      4 C         138.6764  139.2825  165.2758 C.ar    1  UNL1        0.0120
      5 C         139.7135  140.2307  164.7510 C.ar    1  UNL1       -0.0020
      6 C         140.4979  141.0854  165.7018 C.ar    1  UNL1       -0.0052
      7 C         140.2453  140.9918  167.1774 C.ar    1  UNL1        0.0093
      8 C         139.2083  140.0436  167.7022 C.ar    1  UNL1        0.0679
      9 CL        138.9557  139.9501  169.1779 Cl      1  UNL1       -0.0814
     10 N         141.1219  143.3637  164.6203 N.3     1  UNL1       -0.2691
     11 C         142.0989  144.1816  163.8287 C.3     1  UNL1        0.0894
     12 C         143.5136  144.6360  164.0343 C.3     1  UNL1        0.0862
     13 N         143.4806  145.3382  162.7093 N.3     1  UNL1       -0.2951
     14 C         142.0660  144.8838  162.5036 C.3     1  UNL1        0.0862
     15 H         144.1405  144.9680  162.0253 H       1  UNL1        0.1233
     16 C         139.7318  143.8760  164.8550 C.3     1  UNL1        0.0579
     17 C         138.7927  144.8065  165.5637 C.3     1  UNL1        0.0173
     18 C         138.2632  143.8328  164.5530 C.3     1  UNL1        0.0173
@<TRIPOS>BOND
     1     2     3    1
     2     3     4   ar
     3     4     5   ar
     4     5     6   ar
     5     6     1    1
     6     1    10    1
     7    10    16    1
     8    16    17    1
     9    17    18    1
    10    10    11    1
    11    11    12    1
    12    12    13    1
    13    13    14    1
    14     6     7   ar
    15     7     8   ar
    16     8     9    1
    17     8     3   ar
    18    18    16    1
    19    14    11    1
    20    13    15    1
@<TRIPOS>MOLECULE
*****
 18 20 0 0 0
SMALL
GASTEIGER

@<TRIPOS>ATOM
      1 C         138.1112  139.4657  165.6787 C.3     1  UNL1        0.0992
      2 CL        142.8856  140.2698  169.2225 Cl      1  UNL1       -0.0814
      3 C         141.6920  140.0688  168.3366 C.ar    1  UNL1        0.0682
      4 C         141.8748  139.9117  166.8561 C.ar    1  UNL1        0.0120
      5 C         140.6812  139.7106  165.9702 C.ar    1  UNL1       -0.0020
      6 C         139.3048  139.6667  166.5647 C.ar    1  UNL1       -0.0052
      7 C         139.1220  139.8238  168.0452 C.ar    1  UNL1        0.0093
      8 C         140.3155  140.0248  168.9311 C.ar    1  UNL1        0.0679
      9 CL        140.1327  140.1819  170.4117 Cl      1  UNL1       -0.0814
     10 N         138.1165  140.0054  164.2792 N.3     1  UNL1       -0.2691
     11 C         138.3321  139.0792  163.1190 C.3     1  UNL1        0.0894
     12 C         137.8419  139.0218  161.7026 C.3     1  UNL1        0.0862
     13 N         138.6368  137.7696  161.4783 N.3     1  UNL1       -0.2951
     14 C         139.1270  137.8271  162.8948 C.3     1  UNL1        0.0862
     15 H         139.3731  137.8635  160.7787 H       1  UNL1        0.1233
     16 C         137.9064  141.4711  164.0398 C.3     1  UNL1        0.0579
     17 C         137.8822  142.8807  164.5521 C.3     1  UNL1        0.0173
     18 C         137.5665  142.6003  163.1128 C.3     1  UNL1        0.0173
@<TRIPOS>BOND
     1     2     3    1
     2     3     4   ar
     3     4     5   ar
     4     5     6   ar
     5     6     1    1
     6     1    10    1
     7    10    16    1
     8    16    17    1
     9    17    18    1
    10    10    11    1
    11    11    12    1
    12    12    13    1
    13    13    14    1
    14     6     7   ar
    15     7     8   ar
    16     8     9    1
    17     8     3   ar
    18    18    16    1
    19    14    11    1
    20    13    15    1
@<TRIPOS>MOLECULE
*****
 18 20 0 0 0
SMALL
GASTEIGER

@<TRIPOS>ATOM
      1 C         142.7699  140.0783  167.7983 C.3     1  UNL1        0.0992
      2 CL        139.1490  137.5910  163.7115 Cl      1  UNL1       -0.0814
      3 C         140.0542  138.2129  164.7332 C.ar    1  UNL1        0.0682
      4 C         141.5242  137.9153  164.7129 C.ar    1  UNL1        0.0120
      5 C         142.4295  138.5372  165.7347 C.ar    1  UNL1       -0.0020
      6 C         141.8647  139.4565  166.7766 C.ar    1  UNL1       -0.0052
      7 C         140.3946  139.7541  166.7969 C.ar    1  UNL1        0.0093
      8 C         139.4894  139.1322  165.7752 C.ar    1  UNL1        0.0679
      9 CL        138.0193  139.4298  165.7954 Cl      1  UNL1       -0.0814
     10 N         143.0187  141.5574  167.7788 N.3     1  UNL1       -0.2691
     11 C         143.1112  142.3195  169.0675 C.3     1  UNL1        0.0894
     12 C         142.1353  143.0558  169.9368 C.3     1  UNL1        0.0862
     13 N         143.2420  143.3972  170.8900 N.3     1  UNL1       -0.2951
     14 C         144.2179  142.6609  170.0208 C.3     1  UNL1        0.0862
     15 H         143.1284  142.9960  171.8209 H       1  UNL1        0.1233
     16 C         143.1750  142.2745  166.4706 C.3     1  UNL1        0.0579
     17 C         144.0259  143.0448  165.5051 C.3     1  UNL1        0.0173
     18 C         142.5946  142.7461  165.1703 C.3     1  UNL1        0.0173
@<TRIPOS>BOND
     1     2     3    1
     2     3     4   ar
     3     4     5   ar
     4     5     6   ar
     5     6     1    1
     6     1    10    1
     7    10    16    1
     8    16    17    1
     9    17    18    1
    10    10    11    1
    11    11    12    1
    12    12    13    1
    13    13    14    1
    14     6     7   ar
    15     7     8   ar
    16     8     9    1
    17     8     3   ar
    18    18    16    1
    19    14    11    1
    20    13    15    1
@<TRIPOS>MOLECULE
*****
 18 20 0 0 0
SMALL
GASTEIGER

@<TRIPOS>ATOM
      1 C         141.5111  142.1353  165.3723 C.3     1  UNL1        0.0992
      2 CL        141.9696  141.8760  171.3491 Cl      1  UNL1       -0.0814
      3 C         141.8550  141.9408  169.8549 C.ar    1  UNL1        0.0682
      4 C         143.0633  142.2529  169.0228 C.ar    1  UNL1        0.0120
      5 C         142.9487  142.3177  167.5286 C.ar    1  UNL1       -0.0020
      6 C         141.6257  142.0704  166.8665 C.ar    1  UNL1       -0.0052
      7 C         140.4173  141.7583  167.6985 C.ar    1  UNL1        0.0093
      8 C         140.5320  141.6935  169.1927 C.ar    1  UNL1        0.0679
      9 CL        139.3235  141.3813  170.0248 Cl      1  UNL1       -0.0814
     10 N         141.0807  143.4092  164.7076 N.3     1  UNL1       -0.2691
     11 C         142.0551  144.1858  163.8725 C.3     1  UNL1        0.0894
     12 C         143.4633  144.6679  164.0587 C.3     1  UNL1        0.0862
     13 N         143.4332  145.2840  162.6914 N.3     1  UNL1       -0.2951
     14 C         142.0250  144.8019  162.5052 C.3     1  UNL1        0.0862
     15 H         144.1022  144.8783  162.0370 H       1  UNL1        0.1233
     16 C         139.6759  143.9067  164.8782 C.3     1  UNL1        0.0579
     17 C         138.2020  143.7373  164.6568 C.3     1  UNL1        0.0173
     18 C         138.7166  144.9375  165.3948 C.3     1  UNL1        0.0173
@<TRIPOS>BOND
     1     2     3    1
     2     3     4   ar
     3     4     5   ar
     4     5     6   ar
     5     6     1    1
     6     1    10    1
     7    10    16    1
     8    16    17    1
     9    17    18    1
    10    10    11    1
    11    11    12    1
    12    12    13    1
    13    13    14    1
    14     6     7   ar
    15     7     8   ar
    16     8     9    1
    17     8     3   ar
    18    18    16    1
    19    14    11    1
    20    13    15    1
@<TRIPOS>MOLECULE
*****
 18 20 0 0 0
SMALL
GASTEIGER

@<TRIPOS>ATOM
      1 C         138.2837  139.3548  165.4810 C.3     1  UNL1        0.0992
      2 CL        141.4588  142.8349  169.1968 Cl      1  UNL1       -0.0814
      3 C         140.6650  141.9649  168.2679 C.ar    1  UNL1        0.0682
      4 C         140.4356  142.3956  166.8495 C.ar    1  UNL1        0.0120
      5 C         139.6418  141.5256  165.9205 C.ar    1  UNL1       -0.0020
      6 C         139.0775  140.2249  166.4099 C.ar    1  UNL1       -0.0052
      7 C         139.3069  139.7941  167.8283 C.ar    1  UNL1        0.0093
      8 C         140.1007  140.6641  168.7572 C.ar    1  UNL1        0.0679
      9 CL        140.3301  140.2333  170.1757 Cl      1  UNL1       -0.0814
     10 N         138.8768  138.9145  164.1755 N.3     1  UNL1       -0.2691
     11 C         138.1940  139.2625  162.8860 C.3     1  UNL1        0.0894
     12 C         137.7367  138.4883  161.6854 C.3     1  UNL1        0.0862
     13 N         137.2283  139.7546  161.0625 N.3     1  UNL1       -0.2951
     14 C         137.6855  140.5288  162.2631 C.3     1  UNL1        0.0862
     15 H         136.2190  139.7707  160.9163 H       1  UNL1        0.1233
     16 C         140.1528  138.1261  164.1595 C.3     1  UNL1        0.0579
     17 C         141.4189  137.6900  164.8352 C.3     1  UNL1        0.0173
     18 C         141.0967  137.1966  163.4558 C.3     1  UNL1        0.0173
@<TRIPOS>BOND
     1     2     3    1
     2     3     4   ar
     3     4     5   ar
     4     5     6   ar
     5     6     1    1
     6     1    10    1
     7    10    16    1
     8    16    17    1
     9    17    18    1
    10    10    11    1
    11    11    12    1
    12    12    13    1
    13    13    14    1
    14     6     7   ar
    15     7     8   ar
    16     8     9    1
    17     8     3   ar
    18    18    16    1
    19    14    11    1
    20    13    15    1
@<TRIPOS>MOLECULE
*****
 18 20 0 0 0
SMALL
GASTEIGER

@<TRIPOS>ATOM
      1 C         140.6242  141.2117  165.5478 C.3     1  UNL1        0.0992
      2 CL        143.0018  143.2725  170.6566 Cl      1  UNL1       -0.0814
      3 C         142.4074  142.7573  169.3794 C.ar    1  UNL1        0.0682
      4 C         143.2977  142.1954  168.3109 C.ar    1  UNL1        0.0120
      5 C         142.7033  141.6802  167.0337 C.ar    1  UNL1       -0.0020
      6 C         141.2186  141.7269  166.8250 C.ar    1  UNL1       -0.0052
      7 C         140.3284  142.2888  167.8935 C.ar    1  UNL1        0.0093
      8 C         140.9228  142.8040  169.1707 C.ar    1  UNL1        0.0679
      9 CL        140.0325  143.3659  170.2392 Cl      1  UNL1       -0.0814
     10 N         139.9761  142.1621  164.5852 N.3     1  UNL1       -0.2691
     11 C         138.6702  141.8024  163.9407 C.3     1  UNL1        0.0894
     12 C         137.9123  140.5270  163.7195 C.3     1  UNL1        0.0862
     13 N         136.8234  141.2938  163.0292 N.3     1  UNL1       -0.2951
     14 C         137.5813  142.5692  163.2504 C.3     1  UNL1        0.0862
     15 H         135.9221  141.2570  163.5053 H       1  UNL1        0.1233
     16 C         140.6338  143.4721  164.2671 C.3     1  UNL1        0.0579
     17 C         140.5306  144.9368  163.9607 C.3     1  UNL1        0.0173
     18 C         141.8760  144.2764  164.0226 C.3     1  UNL1        0.0173
@<TRIPOS>BOND
     1     2     3    1
     2     3     4   ar
     3     4     5   ar
     4     5     6   ar
     5     6     1    1
     6     1    10    1
     7    10    16    1
     8    16    17    1
     9    17    18    1
    10    10    11    1
    11    11    12    1
    12    12    13    1
    13    13    14    1
    14     6     7   ar
    15     7     8   ar
    16     8     9    1
    17     8     3   ar
    18    18    16    1
    19    14    11    1
    20    13    15    1
