@<TRIPOS>MOLECULE
*****
 36 39 0 0 0
SMALL
GASTEIGER

@<TRIPOS>ATOM
      1 C         139.6460  143.6337  159.8706 C.3     1  UNL1        0.0743
      2 C         140.0521  142.9609  158.5929 C.3     1  UNL1        0.0197
      3 C         141.1082  143.5766  157.7238 C.3     1  UNL1        0.0017
      4 C         141.7583  144.8653  158.1323 C.3     1  UNL1        0.0002
      5 C         141.3522  145.5381  159.4100 C.3     1  UNL1        0.0030
      6 C         140.2960  144.9223  160.2791 C.3     1  UNL1        0.0340
      7 N         137.8676  141.2227  162.4733 N.am    1  UNL1       -0.2683
      8 C         138.9238  141.8385  161.6042 C.2     1  UNL1        0.3044
      9 O         140.3138  141.2748  161.5996 O.2     1  UNL1       -0.2525
     10 N         138.5899  143.0180  160.7397 N.am    1  UNL1       -0.2903
     11 H         136.9553  141.5927  162.4763 H       1  UNL1        0.1564
     12 H         137.6775  143.3879  160.7427 H       1  UNL1        0.1509
     13 C         138.4260  138.9727  165.6945 C.ar    1  UNL1        0.0359
     14 C         138.8692  137.6844  165.0670 C.ar    1  UNL1        0.0029
     15 C         138.9786  137.5755  163.5749 C.ar    1  UNL1        0.0014
     16 C         138.6447  138.7549  162.7104 C.ar    1  UNL1        0.0147
     17 C         138.2015  140.0432  163.3379 C.ar    1  UNL1        0.0517
     18 C         138.0922  140.1521  164.8299 C.ar    1  UNL1        0.0176
     19 C         139.1904  140.0447  167.9342 C.3     1  UNL1        0.0773
     20 C         138.3167  139.0816  167.1865 C.2     1  UNL1        0.1735
     21 O         137.3337  138.2275  167.9308 O.2     1  UNL1       -0.2913
     22 C         139.8899  145.5951  161.5568 C.3     1  UNL1        0.0737
     23 N         139.9706  144.8492  162.8557 N.3     1  UNL1       -0.2726
     24 C         138.7493  144.7043  163.7144 C.3     1  UNL1        0.0721
     25 C         138.8299  143.9584  165.0133 C.3     1  UNL1        0.0174
     26 C         140.1318  143.3574  165.4534 C.3     1  UNL1        0.0031
     27 C         141.3531  143.5023  164.5948 C.3     1  UNL1        0.0204
     28 C         141.2725  144.2482  163.2959 C.3     1  UNL1        0.0724
     29 C         142.6551  142.9013  165.0349 C.3     1  UNL1        0.0277
     30 C         142.6682  141.8164  166.0706 C.ar    1  UNL1       -0.0220
     31 C         142.9000  142.1588  167.5126 C.ar    1  UNL1       -0.0020
     32 C         142.9131  141.0739  168.5483 C.ar    1  UNL1        0.0293
     33 C         142.6944  139.6466  168.1422 C.ar    1  UNL1        0.1401
     34 F         142.7076  138.5616  169.1780 F       1  UNL1       -0.2042
     35 C         142.4626  139.3042  166.7003 C.ar    1  UNL1        0.0293
     36 C         142.4495  140.3891  165.6645 C.ar    1  UNL1       -0.0020
@<TRIPOS>BOND
     1    19    20    1
     2    20    21    2
     3    20    13    1
     4    13    14   ar
     5    14    15   ar
     6    15    16   ar
     7    16    17   ar
     8    17     7    1
     9     7     8   am
    10     8     9    2
    11     8    10   am
    12     1    10    1
    13     1     2    1
    14     2     3    1
    15     3     4    1
    16     4     5    1
    17     5     6    1
    18     6    22    1
    19    22    23    1
    20    23    24    1
    21    24    25    1
    22    25    26    1
    23    26    27    1
    24    27    29    1
    25    29    30    1
    26    30    31   ar
    27    31    32   ar
    28    32    33   ar
    29    33    34    1
    30    33    35   ar
    31    35    36   ar
    32    27    28    1
    33    17    18   ar
    34    18    13   ar
    35     6     1    1
    36    28    23    1
    37    36    30   ar
    38     7    11    1
    39    10    12    1
@<TRIPOS>MOLECULE
*****
 36 39 0 0 0
SMALL
GASTEIGER

@<TRIPOS>ATOM
      1 C         139.5966  143.6799  159.8641 C.3     1  UNL1        0.0743
      2 C         139.9554  142.9834  158.5850 C.3     1  UNL1        0.0197
      3 C         140.9951  143.5707  157.6773 C.3     1  UNL1        0.0017
      4 C         141.6761  144.8547  158.0487 C.3     1  UNL1        0.0002
      5 C         141.3173  145.5512  159.3278 C.3     1  UNL1        0.0030
      6 C         140.2775  144.9637  160.2355 C.3     1  UNL1        0.0340
      7 N         137.8523  141.3198  162.5357 N.am    1  UNL1       -0.2683
      8 C         138.8920  141.9072  161.6280 C.2     1  UNL1        0.3044
      9 O         140.2667  141.3093  161.5763 O.2     1  UNL1       -0.2525
     10 N         138.5569  143.0925  160.7718 N.am    1  UNL1       -0.2903
     11 H         136.9500  141.7122  162.5695 H       1  UNL1        0.1564
     12 H         137.6547  143.4849  160.8057 H       1  UNL1        0.1509
     13 C         138.5448  139.0854  165.7416 C.ar    1  UNL1        0.0359
     14 C         138.8573  137.7641  165.1041 C.ar    1  UNL1        0.0029
     15 C         138.8347  137.6280  163.6105 C.ar    1  UNL1        0.0014
     16 C         138.4998  138.8132  162.7543 C.ar    1  UNL1        0.0147
     17 C         138.1873  140.1345  163.3918 C.ar    1  UNL1        0.0517
     18 C         138.2098  140.2706  164.8854 C.ar    1  UNL1        0.0176
     19 C         139.6255  140.0538  167.8966 C.3     1  UNL1        0.0773
     20 C         138.5673  139.2215  167.2352 C.2     1  UNL1        0.1735
     21 O         137.5317  138.5253  168.0675 O.2     1  UNL1       -0.2913
     22 C         139.9187  145.6602  161.5147 C.3     1  UNL1        0.0737
     23 N         139.9687  144.9136  162.8147 N.3     1  UNL1       -0.2726
     24 C         138.7852  144.9319  163.7361 C.3     1  UNL1        0.0721
     25 C         138.8352  144.1853  165.0361 C.3     1  UNL1        0.0174
     26 C         140.0687  143.4203  165.4147 C.3     1  UNL1        0.0031
     27 C         141.2522  143.4020  164.4933 C.3     1  UNL1        0.0204
     28 C         141.2022  144.1486  163.1933 C.3     1  UNL1        0.0724
     29 C         142.4857  142.6371  164.8719 C.3     1  UNL1        0.0277
     30 C         142.8432  141.3792  164.1372 C.ar    1  UNL1       -0.0220
     31 C         142.0373  140.1319  164.3493 C.ar    1  UNL1       -0.0020
     32 C         142.3948  138.8740  163.6146 C.ar    1  UNL1        0.0293
     33 C         143.5582  138.8633  162.6678 C.ar    1  UNL1        0.1401
     34 F         143.9156  137.6053  161.9331 F       1  UNL1       -0.2042
     35 C         144.3640  140.1105  162.4557 C.ar    1  UNL1        0.0293
     36 C         144.0066  141.3685  163.1904 C.ar    1  UNL1       -0.0020
@<TRIPOS>BOND
     1    19    20    1
     2    20    21    2
     3    20    13    1
     4    13    14   ar
     5    14    15   ar
     6    15    16   ar
     7    16    17   ar
     8    17     7    1
     9     7     8   am
    10     8     9    2
    11     8    10   am
    12     1    10    1
    13     1     2    1
    14     2     3    1
    15     3     4    1
    16     4     5    1
    17     5     6    1
    18     6    22    1
    19    22    23    1
    20    23    24    1
    21    24    25    1
    22    25    26    1
    23    26    27    1
    24    27    29    1
    25    29    30    1
    26    30    31   ar
    27    31    32   ar
    28    32    33   ar
    29    33    34    1
    30    33    35   ar
    31    35    36   ar
    32    27    28    1
    33    17    18   ar
    34    18    13   ar
    35     6     1    1
    36    28    23    1
    37    36    30   ar
    38     7    11    1
    39    10    12    1
@<TRIPOS>MOLECULE
*****
 36 39 0 0 0
SMALL
GASTEIGER

@<TRIPOS>ATOM
      1 C         142.0200  144.5586  162.6711 C.3     1  UNL1        0.0743
      2 C         140.9567  145.5897  162.9080 C.3     1  UNL1        0.0197
      3 C         140.0903  146.0482  161.7726 C.3     1  UNL1        0.0017
      4 C         140.2873  145.4755  160.4002 C.3     1  UNL1        0.0002
      5 C         141.3506  144.4443  160.1633 C.3     1  UNL1        0.0030
      6 C         142.2170  143.9859  161.2989 C.3     1  UNL1        0.0340
      7 N         143.2008  142.7052  165.9758 N.am    1  UNL1       -0.2683
      8 C         142.3344  143.1637  164.8404 C.2     1  UNL1        0.3044
      9 O         140.9162  142.6858  164.7387 O.2     1  UNL1       -0.2525
     10 N         142.8863  144.1001  163.8065 N.am    1  UNL1       -0.2903
     11 H         144.1316  143.0189  166.0425 H       1  UNL1        0.1564
     12 H         143.8171  144.4137  163.8733 H       1  UNL1        0.1509
     13 C         141.3953  141.3785  169.2515 C.ar    1  UNL1        0.0359
     14 C         141.5452  139.8962  169.0772 C.ar    1  UNL1        0.0029
     15 C         142.2470  139.3503  167.8691 C.ar    1  UNL1        0.0014
     16 C         142.7988  140.2866  166.8353 C.ar    1  UNL1        0.0147
     17 C         142.6489  141.7688  167.0096 C.ar    1  UNL1        0.0517
     18 C         141.9472  142.3148  168.2177 C.ar    1  UNL1        0.0176
     19 C         139.9641  143.2324  170.3760 C.3     1  UNL1        0.0773
     20 C         140.6935  141.9244  170.4596 C.2     1  UNL1        0.1735
     21 O         140.7212  141.1624  171.7512 O.2     1  UNL1       -0.2913
     22 C         143.2803  142.9547  161.0620 C.3     1  UNL1        0.0737
     23 N         143.2614  141.6674  161.8318 N.3     1  UNL1       -0.2726
     24 C         144.5035  141.1885  162.5230 C.3     1  UNL1        0.0721
     25 C         144.4845  139.9012  163.2927 C.3     1  UNL1        0.0174
     26 C         143.2234  139.0928  163.3712 C.3     1  UNL1        0.0031
     27 C         141.9813  139.5717  162.6800 C.3     1  UNL1        0.0204
     28 C         142.0003  140.8590  161.9103 C.3     1  UNL1        0.0724
     29 C         140.7202  138.7633  162.7585 C.3     1  UNL1        0.0277
     30 C         139.9055  138.7649  164.0179 C.ar    1  UNL1       -0.0220
     31 C         139.2764  137.4936  164.5059 C.ar    1  UNL1       -0.0020
     32 C         138.4616  137.4953  165.7653 C.ar    1  UNL1        0.0293
     33 C         138.2760  138.7682  166.5368 C.ar    1  UNL1        0.1401
     34 F         137.4612  138.7698  167.7963 F       1  UNL1       -0.2042
     35 C         138.9050  140.0394  166.0489 C.ar    1  UNL1        0.0293
     36 C         139.7198  140.0379  164.7894 C.ar    1  UNL1       -0.0020
@<TRIPOS>BOND
     1    19    20    1
     2    20    21    2
     3    20    13    1
     4    13    14   ar
     5    14    15   ar
     6    15    16   ar
     7    16    17   ar
     8    17     7    1
     9     7     8   am
    10     8     9    2
    11     8    10   am
    12     1    10    1
    13     1     2    1
    14     2     3    1
    15     3     4    1
    16     4     5    1
    17     5     6    1
    18     6    22    1
    19    22    23    1
    20    23    24    1
    21    24    25    1
    22    25    26    1
    23    26    27    1
    24    27    29    1
    25    29    30    1
    26    30    31   ar
    27    31    32   ar
    28    32    33   ar
    29    33    34    1
    30    33    35   ar
    31    35    36   ar
    32    27    28    1
    33    17    18   ar
    34    18    13   ar
    35     6     1    1
    36    28    23    1
    37    36    30   ar
    38     7    11    1
    39    10    12    1
@<TRIPOS>MOLECULE
*****
 36 39 0 0 0
SMALL
GASTEIGER

@<TRIPOS>ATOM
      1 C         144.1711  140.6778  161.9227 C.3     1  UNL1        0.0743
      2 C         144.8112  142.0031  161.6332 C.3     1  UNL1        0.0197
      3 C         144.7787  142.5638  160.2423 C.3     1  UNL1        0.0017
      4 C         144.1061  141.7992  159.1409 C.3     1  UNL1        0.0002
      5 C         143.4660  140.4739  159.4304 C.3     1  UNL1        0.0030
      6 C         143.4985  139.9132  160.8213 C.3     1  UNL1        0.0340
      7 N         143.3020  140.0895  165.7500 N.am    1  UNL1       -0.2683
      8 C         143.2695  140.6502  164.3592 C.2     1  UNL1        0.3044
      9 O         142.3029  141.7440  164.0139 O.2     1  UNL1       -0.2525
     10 N         144.2036  140.1171  163.3135 N.am    1  UNL1       -0.2903
     11 H         143.9364  139.3716  165.9766 H       1  UNL1        0.1564
     12 H         144.8380  139.3992  163.5401 H       1  UNL1        0.1509
     13 C         140.1429  140.4465  168.1254 C.ar    1  UNL1        0.0359
     14 C         140.4997  141.6887  168.8868 C.ar    1  UNL1        0.0029
     15 C         141.7906  142.3978  168.6025 C.ar    1  UNL1        0.0014
     16 C         142.7246  141.8648  167.5570 C.ar    1  UNL1        0.0147
     17 C         142.3679  140.6226  166.7956 C.ar    1  UNL1        0.0517
     18 C         141.0770  139.9135  167.0799 C.ar    1  UNL1        0.0176
     19 C         138.1029  139.0682  167.2958 C.3     1  UNL1        0.0773
     20 C         138.8520  139.7374  168.4097 C.2     1  UNL1        0.1735
     21 O         138.3104  139.6974  169.8079 O.2     1  UNL1       -0.2913
     22 C         142.8584  138.5879  161.1109 C.3     1  UNL1        0.0737
     23 N         141.7097  138.5038  162.0718 N.3     1  UNL1       -0.2726
     24 C         141.6981  137.4470  163.1363 C.3     1  UNL1        0.0721
     25 C         140.5494  137.3630  164.0971 C.3     1  UNL1        0.0174
     26 C         139.4122  138.3357  163.9936 C.3     1  UNL1        0.0031
     27 C         139.4238  139.3924  162.9291 C.3     1  UNL1        0.0204
     28 C         140.5725  139.4765  161.9683 C.3     1  UNL1        0.0724
     29 C         138.2866  140.3651  162.8256 C.3     1  UNL1        0.0277
     30 C         138.3468  141.6705  163.5621 C.ar    1  UNL1       -0.0220
     31 C         139.1120  141.7713  164.8484 C.ar    1  UNL1       -0.0020
     32 C         139.1722  143.0767  165.5848 C.ar    1  UNL1        0.0293
     33 C         138.4672  144.2812  165.0351 C.ar    1  UNL1        0.1401
     34 F         138.5274  145.5865  165.7717 F       1  UNL1       -0.2042
     35 C         137.7021  144.1804  163.7489 C.ar    1  UNL1        0.0293
     36 C         137.6419  142.8750  163.0124 C.ar    1  UNL1       -0.0020
@<TRIPOS>BOND
     1    19    20    1
     2    20    21    2
     3    20    13    1
     4    13    14   ar
     5    14    15   ar
     6    15    16   ar
     7    16    17   ar
     8    17     7    1
     9     7     8   am
    10     8     9    2
    11     8    10   am
    12     1    10    1
    13     1     2    1
    14     2     3    1
    15     3     4    1
    16     4     5    1
    17     5     6    1
    18     6    22    1
    19    22    23    1
    20    23    24    1
    21    24    25    1
    22    25    26    1
    23    26    27    1
    24    27    29    1
    25    29    30    1
    26    30    31   ar
    27    31    32   ar
    28    32    33   ar
    29    33    34    1
    30    33    35   ar
    31    35    36   ar
    32    27    28    1
    33    17    18   ar
    34    18    13   ar
    35     6     1    1
    36    28    23    1
    37    36    30   ar
    38     7    11    1
    39    10    12    1
@<TRIPOS>MOLECULE
*****
 36 39 0 0 0
SMALL
GASTEIGER

@<TRIPOS>ATOM
      1 C         142.5949  143.6477  160.9004 C.3     1  UNL1        0.0743
      2 C         143.7702  142.8690  160.3883 C.3     1  UNL1        0.0197
      3 C         143.8436  142.4878  158.9395 C.3     1  UNL1        0.0017
      4 C         142.7416  142.8854  158.0026 C.3     1  UNL1        0.0002
      5 C         141.5663  143.6641  158.5147 C.3     1  UNL1        0.0030
      6 C         141.4929  144.0453  159.9636 C.3     1  UNL1        0.0340
      7 N         142.0405  143.3922  164.8218 N.am    1  UNL1       -0.2683
      8 C         142.1139  143.0110  163.3729 C.2     1  UNL1        0.3044
      9 O         141.7796  141.6119  162.9476 O.2     1  UNL1       -0.2525
     10 N         142.5215  144.0289  162.3493 N.am    1  UNL1       -0.2903
     11 H         142.2599  144.3104  165.1009 H       1  UNL1        0.1564
     12 H         142.7409  144.9472  162.6284 H       1  UNL1        0.1509
     13 C         142.1093  140.1770  167.1473 C.ar    1  UNL1        0.0359
     14 C         140.8177  140.3385  167.8926 C.ar    1  UNL1        0.0029
     15 C         139.9336  141.5179  167.6143 C.ar    1  UNL1        0.0014
     16 C         140.3412  142.5358  166.5907 C.ar    1  UNL1        0.0147
     17 C         141.6328  142.3743  165.8454 C.ar    1  UNL1        0.0517
     18 C         142.5169  141.1949  166.1237 C.ar    1  UNL1        0.0176
     19 C         143.6470  138.2659  166.2910 C.3     1  UNL1        0.0773
     20 C         142.9934  138.9976  167.4256 C.2     1  UNL1        0.1735
     21 O         143.2239  138.5499  168.8385 O.2     1  UNL1       -0.2913
     22 C         140.3176  144.8240  160.4757 C.3     1  UNL1        0.0737
     23 N         139.4864  144.2762  161.5978 N.3     1  UNL1       -0.2726
     24 C         139.1381  145.1477  162.7679 C.3     1  UNL1        0.0721
     25 C         138.3069  144.5999  163.8899 C.3     1  UNL1        0.0174
     26 C         137.8239  143.1806  163.8418 C.3     1  UNL1        0.0031
     27 C         138.1722  142.3091  162.6717 C.3     1  UNL1        0.0204
     28 C         139.0034  142.8569  161.5497 C.3     1  UNL1        0.0724
     29 C         137.6892  140.8898  162.6236 C.3     1  UNL1        0.0277
     30 C         138.5603  139.7832  163.1400 C.ar    1  UNL1       -0.0220
     31 C         138.6051  139.4878  164.6100 C.ar    1  UNL1       -0.0020
     32 C         139.4761  138.3813  165.1265 C.ar    1  UNL1        0.0293
     33 C         140.3024  137.5701  164.1730 C.ar    1  UNL1        0.1401
     34 F         141.1735  136.4635  164.6895 F       1  UNL1       -0.2042
     35 C         140.2577  137.8654  162.7031 C.ar    1  UNL1        0.0293
     36 C         139.3866  138.9720  162.1865 C.ar    1  UNL1       -0.0020
@<TRIPOS>BOND
     1    19    20    1
     2    20    21    2
     3    20    13    1
     4    13    14   ar
     5    14    15   ar
     6    15    16   ar
     7    16    17   ar
     8    17     7    1
     9     7     8   am
    10     8     9    2
    11     8    10   am
    12     1    10    1
    13     1     2    1
    14     2     3    1
    15     3     4    1
    16     4     5    1
    17     5     6    1
    18     6    22    1
    19    22    23    1
    20    23    24    1
    21    24    25    1
    22    25    26    1
    23    26    27    1
    24    27    29    1
    25    29    30    1
    26    30    31   ar
    27    31    32   ar
    28    32    33   ar
    29    33    34    1
    30    33    35   ar
    31    35    36   ar
    32    27    28    1
    33    17    18   ar
    34    18    13   ar
    35     6     1    1
    36    28    23    1
    37    36    30   ar
    38     7    11    1
    39    10    12    1
@<TRIPOS>MOLECULE
*****
 36 39 0 0 0
SMALL
GASTEIGER

@<TRIPOS>ATOM
      1 C         144.1196  140.7399  162.1915 C.3     1  UNL1        0.0743
      2 C         144.7984  142.0741  162.0952 C.3     1  UNL1        0.0197
      3 C         144.8946  142.7729  160.7715 C.3     1  UNL1        0.0017
      4 C         144.3119  142.1376  159.5439 C.3     1  UNL1        0.0002
      5 C         143.6331  140.8035  159.6401 C.3     1  UNL1        0.0030
      6 C         143.5369  140.1047  160.9639 C.3     1  UNL1        0.0340
      7 N         142.9342  139.8076  165.8623 N.am    1  UNL1       -0.2683
      8 C         143.0303  140.5065  164.5386 C.2     1  UNL1        0.3044
      9 O         142.1335  141.6707  164.2382 O.2     1  UNL1       -0.2525
     10 N         144.0234  140.0411  163.5152 N.am    1  UNL1       -0.2903
     11 H         143.5228  139.0435  166.0595 H       1  UNL1        0.1564
     12 H         144.6120  139.2770  163.7123 H       1  UNL1        0.1509
     13 C         141.2703  141.9104  168.7881 C.ar    1  UNL1        0.0359
     14 C         139.9551  141.2038  168.9325 C.ar    1  UNL1        0.0029
     15 C         139.6329  140.0318  168.0536 C.ar    1  UNL1        0.0014
     16 C         140.6259  139.5664  167.0302 C.ar    1  UNL1        0.0147
     17 C         141.9411  140.2730  166.8858 C.ar    1  UNL1        0.0517
     18 C         142.2633  141.4450  167.7648 C.ar    1  UNL1        0.0176
     19 C         140.5287  144.0867  169.9979 C.3     1  UNL1        0.0773
     20 C         141.5926  143.0823  169.6671 C.2     1  UNL1        0.1735
     21 O         142.9787  143.2500  170.2154 O.2     1  UNL1       -0.2913
     22 C         142.8581  138.7705  161.0601 C.3     1  UNL1        0.0737
     23 N         141.6848  138.5904  161.9772 N.3     1  UNL1       -0.2726
     24 C         141.6646  137.4530  162.9549 C.3     1  UNL1        0.0721
     25 C         140.4914  137.2730  163.8719 C.3     1  UNL1        0.0174
     26 C         139.3382  138.2303  163.8113 C.3     1  UNL1        0.0031
     27 C         139.3584  139.3678  162.8337 C.3     1  UNL1        0.0204
     28 C         140.5316  139.5478  161.9166 C.3     1  UNL1        0.0724
     29 C         138.2052  140.3251  162.7731 C.3     1  UNL1        0.0277
     30 C         138.2766  141.6326  163.5048 C.ar    1  UNL1       -0.0220
     31 C         138.9550  141.7084  164.8405 C.ar    1  UNL1       -0.0020
     32 C         139.0264  143.0159  165.5722 C.ar    1  UNL1        0.0293
     33 C         138.4195  144.2475  164.9683 C.ar    1  UNL1        0.1401
     34 F         138.4910  145.5550  165.7001 F       1  UNL1       -0.2042
     35 C         137.7412  144.1717  163.6326 C.ar    1  UNL1        0.0293
     36 C         137.6697  142.8642  162.9008 C.ar    1  UNL1       -0.0020
@<TRIPOS>BOND
     1    19    20    1
     2    20    21    2
     3    20    13    1
     4    13    14   ar
     5    14    15   ar
     6    15    16   ar
     7    16    17   ar
     8    17     7    1
     9     7     8   am
    10     8     9    2
    11     8    10   am
    12     1    10    1
    13     1     2    1
    14     2     3    1
    15     3     4    1
    16     4     5    1
    17     5     6    1
    18     6    22    1
    19    22    23    1
    20    23    24    1
    21    24    25    1
    22    25    26    1
    23    26    27    1
    24    27    29    1
    25    29    30    1
    26    30    31   ar
    27    31    32   ar
    28    32    33   ar
    29    33    34    1
    30    33    35   ar
    31    35    36   ar
    32    27    28    1
    33    17    18   ar
    34    18    13   ar
    35     6     1    1
    36    28    23    1
    37    36    30   ar
    38     7    11    1
    39    10    12    1
@<TRIPOS>MOLECULE
*****
 36 39 0 0 0
SMALL
GASTEIGER

@<TRIPOS>ATOM
      1 C         141.1774  138.7564  160.3123 C.3     1  UNL1        0.0743
      2 C         139.8445  138.8186  159.6270 C.3     1  UNL1        0.0197
      3 C         139.7113  139.5208  158.3082 C.3     1  UNL1        0.0017
      4 C         140.9110  140.1608  157.6747 C.3     1  UNL1        0.0002
      5 C         142.2438  140.0985  158.3600 C.3     1  UNL1        0.0030
      6 C         142.3770  139.3963  159.6788 C.3     1  UNL1        0.0340
      7 N         141.0751  138.0624  164.2184 N.am    1  UNL1       -0.2683
      8 C         140.9418  138.7646  162.8997 C.2     1  UNL1        0.3044
      9 O         140.4399  140.1772  162.8495 O.2     1  UNL1       -0.2525
     10 N         141.3106  138.0542  161.6310 N.am    1  UNL1       -0.2903
     11 H         141.4045  137.1353  164.2513 H       1  UNL1        0.1564
     12 H         141.6401  137.1270  161.6639 H       1  UNL1        0.1509
     13 C         141.4082  140.0867  167.6157 C.ar    1  UNL1        0.0359
     14 C         139.9689  140.1936  168.0242 C.ar    1  UNL1        0.0029
     15 C         138.8983  139.5902  167.1641 C.ar    1  UNL1        0.0014
     16 C         139.2670  138.8798  165.8955 C.ar    1  UNL1        0.0147
     17 C         140.7063  138.7729  165.4870 C.ar    1  UNL1        0.0517
     18 C         141.7769  139.3763  166.3471 C.ar    1  UNL1        0.0176
     19 C         142.9517  142.0892  168.2136 C.3     1  UNL1        0.0773
     20 C         142.4788  140.6901  168.4758 C.2     1  UNL1        0.1735
     21 O         143.0765  139.8943  169.5980 O.2     1  UNL1       -0.2913
     22 C         143.7099  139.3340  160.3641 C.3     1  UNL1        0.0737
     23 N         143.8872  139.9564  161.7174 N.3     1  UNL1       -0.2726
     24 C         144.5195  139.1702  162.8274 C.3     1  UNL1        0.0721
     25 C         144.6968  139.7926  164.1806 C.3     1  UNL1        0.0174
     26 C         144.2419  141.2011  164.4238 C.3     1  UNL1        0.0031
     27 C         143.6096  141.9872  163.3138 C.3     1  UNL1        0.0204
     28 C         143.4323  141.3649  161.9606 C.3     1  UNL1        0.0724
     29 C         143.1546  143.3957  163.5569 C.3     1  UNL1        0.0277
     30 C         141.7418  143.6645  163.9831 C.ar    1  UNL1       -0.0220
     31 C         140.9590  144.7666  163.3328 C.ar    1  UNL1       -0.0020
     32 C         139.5462  145.0354  163.7589 C.ar    1  UNL1        0.0293
     33 C         138.9161  144.2022  164.8354 C.ar    1  UNL1        0.1401
     34 F         137.5032  144.4710  165.2615 F       1  UNL1       -0.2042
     35 C         139.6988  143.1001  165.4856 C.ar    1  UNL1        0.0293
     36 C         141.1117  142.8313  165.0595 C.ar    1  UNL1       -0.0020
@<TRIPOS>BOND
     1    19    20    1
     2    20    21    2
     3    20    13    1
     4    13    14   ar
     5    14    15   ar
     6    15    16   ar
     7    16    17   ar
     8    17     7    1
     9     7     8   am
    10     8     9    2
    11     8    10   am
    12     1    10    1
    13     1     2    1
    14     2     3    1
    15     3     4    1
    16     4     5    1
    17     5     6    1
    18     6    22    1
    19    22    23    1
    20    23    24    1
    21    24    25    1
    22    25    26    1
    23    26    27    1
    24    27    29    1
    25    29    30    1
    26    30    31   ar
    27    31    32   ar
    28    32    33   ar
    29    33    34    1
    30    33    35   ar
    31    35    36   ar
    32    27    28    1
    33    17    18   ar
    34    18    13   ar
    35     6     1    1
    36    28    23    1
    37    36    30   ar
    38     7    11    1
    39    10    12    1
@<TRIPOS>MOLECULE
*****
 36 39 0 0 0
SMALL
GASTEIGER

@<TRIPOS>ATOM
      1 C         142.1198  143.9811  160.8231 C.3     1  UNL1        0.0743
      2 C         143.1184  143.2664  159.9617 C.3     1  UNL1        0.0197
      3 C         142.8692  143.1179  158.4900 C.3     1  UNL1        0.0017
      4 C         141.6213  143.6841  157.8797 C.3     1  UNL1        0.0002
      5 C         140.6228  144.3988  158.7412 C.3     1  UNL1        0.0030
      6 C         140.8720  144.5473  160.2129 C.3     1  UNL1        0.0340
      7 N         142.4466  143.0999  164.6788 N.am    1  UNL1       -0.2683
      8 C         142.1974  142.9514  163.2072 C.2     1  UNL1        0.3044
      9 O         141.7766  141.6247  162.6479 O.2     1  UNL1       -0.2525
     10 N         142.3690  144.1296  162.2947 N.am    1  UNL1       -0.2903
     11 H         142.7228  143.9707  165.0459 H       1  UNL1        0.1564
     12 H         142.6452  145.0004  162.6618 H       1  UNL1        0.1509
     13 C         141.0491  140.7684  167.5704 C.ar    1  UNL1        0.0359
     14 C         141.9317  139.5655  167.4160 C.ar    1  UNL1        0.0029
     15 C         142.9860  139.5406  166.3493 C.ar    1  UNL1        0.0014
     16 C         143.1576  140.7188  165.4369 C.ar    1  UNL1        0.0147
     17 C         142.2750  141.9217  165.5912 C.ar    1  UNL1        0.0517
     18 C         141.2208  141.9465  166.6580 C.ar    1  UNL1        0.0176
     19 C         139.9125  141.9541  169.5834 C.3     1  UNL1        0.0773
     20 C         139.9949  140.7932  168.6371 C.2     1  UNL1        0.1735
     21 O         139.0229  139.6571  168.7576 O.2     1  UNL1       -0.2913
     22 C         139.8735  145.2620  161.0743 C.3     1  UNL1        0.0737
     23 N         139.2825  144.5718  162.2678 N.3     1  UNL1       -0.2726
     24 C         139.2327  145.2745  163.5921 C.3     1  UNL1        0.0721
     25 C         138.6418  144.5843  164.7856 C.3     1  UNL1        0.0174
     26 C         138.1006  143.1915  164.6547 C.3     1  UNL1        0.0031
     27 C         138.1503  142.4888  163.3304 C.3     1  UNL1        0.0204
     28 C         138.7413  143.1790  162.1370 C.3     1  UNL1        0.0724
     29 C         137.6091  141.0960  163.1996 C.3     1  UNL1        0.0277
     30 C         138.4551  139.9223  163.5954 C.ar    1  UNL1       -0.0220
     31 C         139.3136  139.2380  162.5732 C.ar    1  UNL1       -0.0020
     32 C         140.1597  138.0643  162.9690 C.ar    1  UNL1        0.0293
     33 C         140.1473  137.5750  164.3869 C.ar    1  UNL1        0.1401
     34 F         140.9934  136.4012  164.7827 F       1  UNL1       -0.2042
     35 C         139.2888  138.2593  165.4090 C.ar    1  UNL1        0.0293
     36 C         138.4427  139.4330  165.0132 C.ar    1  UNL1       -0.0020
@<TRIPOS>BOND
     1    19    20    1
     2    20    21    2
     3    20    13    1
     4    13    14   ar
     5    14    15   ar
     6    15    16   ar
     7    16    17   ar
     8    17     7    1
     9     7     8   am
    10     8     9    2
    11     8    10   am
    12     1    10    1
    13     1     2    1
    14     2     3    1
    15     3     4    1
    16     4     5    1
    17     5     6    1
    18     6    22    1
    19    22    23    1
    20    23    24    1
    21    24    25    1
    22    25    26    1
    23    26    27    1
    24    27    29    1
    25    29    30    1
    26    30    31   ar
    27    31    32   ar
    28    32    33   ar
    29    33    34    1
    30    33    35   ar
    31    35    36   ar
    32    27    28    1
    33    17    18   ar
    34    18    13   ar
    35     6     1    1
    36    28    23    1
    37    36    30   ar
    38     7    11    1
    39    10    12    1
@<TRIPOS>MOLECULE
*****
 36 39 0 0 0
SMALL
GASTEIGER

@<TRIPOS>ATOM
      1 C         138.9112  142.8849  159.6227 C.3     1  UNL1        0.0743
      2 C         138.4607  141.7044  158.8143 C.3     1  UNL1        0.0197
      3 C         139.0585  141.4489  157.4625 C.3     1  UNL1        0.0017
      4 C         140.1069  142.3740  156.9191 C.3     1  UNL1        0.0002
      5 C         140.5574  143.5545  157.7274 C.3     1  UNL1        0.0030
      6 C         139.9595  143.8100  159.0793 C.3     1  UNL1        0.0340
      7 N         138.1981  142.6230  163.5179 N.am    1  UNL1       -0.2683
      8 C         138.7959  142.3676  162.1661 C.2     1  UNL1        0.3044
      9 O         139.8762  141.3394  162.0060 O.2     1  UNL1       -0.2525
     10 N         138.3134  143.1404  160.9744 N.am    1  UNL1       -0.2903
     11 H         137.4891  143.2979  163.6230 H       1  UNL1        0.1564
     12 H         137.6044  143.8152  161.0795 H       1  UNL1        0.1509
     13 C         140.1088  141.7149  166.8757 C.ar    1  UNL1        0.0359
     14 C         139.6456  140.3049  167.0929 C.ar    1  UNL1        0.0029
     15 C         138.7000  139.6675  166.1184 C.ar    1  UNL1        0.0014
     16 C         138.2175  140.4402  164.9268 C.ar    1  UNL1        0.0147
     17 C         138.6806  141.8503  164.7096 C.ar    1  UNL1        0.0517
     18 C         139.6263  142.4876  165.6840 C.ar    1  UNL1        0.0176
     19 C         140.5229  143.2137  168.9570 C.3     1  UNL1        0.0773
     20 C         141.0544  142.3522  167.8501 C.2     1  UNL1        0.1735
     21 O         142.5316  142.1280  167.7177 O.2     1  UNL1       -0.2913
     22 C         140.4100  144.9905  159.8876 C.3     1  UNL1        0.0737
     23 N         141.1412  144.7793  161.1803 N.3     1  UNL1       -0.2726
     24 C         140.7493  145.5598  162.3998 C.3     1  UNL1        0.0721
     25 C         141.4805  145.3486  163.6923 C.3     1  UNL1        0.0174
     26 C         142.6035  144.3568  163.7654 C.3     1  UNL1        0.0031
     27 C         142.9953  143.5763  162.5459 C.3     1  UNL1        0.0204
     28 C         142.2642  143.7875  161.2533 C.3     1  UNL1        0.0724
     29 C         144.1183  142.5846  162.6189 C.3     1  UNL1        0.0277
     30 C         143.9911  141.3703  163.4903 C.ar    1  UNL1       -0.0220
     31 C         142.6508  140.9763  164.0366 C.ar    1  UNL1       -0.0020
     32 C         142.5235  139.7620  164.9079 C.ar    1  UNL1        0.0293
     33 C         143.7365  138.9417  165.2330 C.ar    1  UNL1        0.1401
     34 F         143.6092  137.7273  166.1044 F       1  UNL1       -0.2042
     35 C         145.0768  139.3356  164.6867 C.ar    1  UNL1        0.0293
     36 C         145.2041  140.5500  163.8153 C.ar    1  UNL1       -0.0020
@<TRIPOS>BOND
     1    19    20    1
     2    20    21    2
     3    20    13    1
     4    13    14   ar
     5    14    15   ar
     6    15    16   ar
     7    16    17   ar
     8    17     7    1
     9     7     8   am
    10     8     9    2
    11     8    10   am
    12     1    10    1
    13     1     2    1
    14     2     3    1
    15     3     4    1
    16     4     5    1
    17     5     6    1
    18     6    22    1
    19    22    23    1
    20    23    24    1
    21    24    25    1
    22    25    26    1
    23    26    27    1
    24    27    29    1
    25    29    30    1
    26    30    31   ar
    27    31    32   ar
    28    32    33   ar
    29    33    34    1
    30    33    35   ar
    31    35    36   ar
    32    27    28    1
    33    17    18   ar
    34    18    13   ar
    35     6     1    1
    36    28    23    1
    37    36    30   ar
    38     7    11    1
    39    10    12    1
