@<TRIPOS>MOLECULE
*****
 50 53 0 0 0
SMALL
GASTEIGER

@<TRIPOS>ATOM
      1 C         137.6847  141.6743  163.6322 C.3     1  UNL1        0.1303
      2 O         136.5042  141.2240  162.8236 O.3     1  UNL1       -0.3827
      3 H         135.9578  141.9918  162.5941 H       1  UNL1        0.2104
      4 C         138.6897  140.6709  164.1150 C.3     1  UNL1        0.1028
      5 C         139.3339  139.0127  162.2215 C.2     1  UNL1        0.2671
      6 O         137.9372  138.4656  162.2254 O.2     1  UNL1       -0.2711
      7 N         139.7102  140.1153  163.1663 N.am    1  UNL1       -0.3002
      8 H         140.6269  140.4743  163.1638 H       1  UNL1        0.1496
      9 C         140.3543  138.4570  161.2728 C.3     1  UNL1        0.2893
     10 O         141.4627  137.5876  161.7883 O.3     1  UNL1       -0.4663
     11 C         140.9849  137.0873  164.7075 C.3     1  UNL1        0.0342
     12 C         142.1846  137.8730  164.2677 C.ar    1  UNL1        0.0118
     13 C         143.1454  138.4085  165.2875 C.ar    1  UNL1       -0.0013
     14 C         144.3451  139.1942  164.8478 C.ar    1  UNL1       -0.0004
     15 C         144.5840  139.4444  163.3883 C.ar    1  UNL1       -0.0013
     16 C         143.6232  138.9088  162.3685 C.ar    1  UNL1        0.0118
     17 C         143.8621  139.1590  160.9088 C.3     1  UNL1        0.0342
     18 C         142.4235  138.1231  162.8082 C.ar    1  UNL1        0.1312
     19 C         138.6743  140.2231  165.5465 C.3     1  UNL1        0.0484
     20 C         139.7127  140.7310  166.5024 C.ar    1  UNL1       -0.0204
     21 C         139.8343  142.2027  166.7653 C.ar    1  UNL1       -0.0042
     22 C         140.8727  142.7106  167.7212 C.ar    1  UNL1       -0.0003
     23 C         141.7894  141.7467  168.4144 C.ar    1  UNL1       -0.0000
     24 C         141.6678  140.2749  168.1516 C.ar    1  UNL1       -0.0003
     25 C         140.6294  139.7670  167.1956 C.ar    1  UNL1       -0.0042
     26 C         137.8602  143.1279  163.9579 C.3     1  UNL1        0.0508
     27 C         138.7586  143.9825  163.1137 C.3     1  UNL1        0.0784
     28 N         138.6583  143.9271  161.6181 N.am    1  UNL1       -0.3042
     29 C         139.5783  143.0362  160.8372 C.2     1  UNL1        0.2406
     30 O         140.1653  142.5351  161.0368 O.2     1  UNL1       -0.2733
     31 H         137.9886  144.4755  161.1490 H       1  UNL1        0.1494
     32 C         139.4780  142.9808  159.3416 C.3     1  UNL1        0.1529
     33 N         140.4168  143.7896  158.4965 N.am    1  UNL1       -0.2574
     34 C         141.2562  143.1151  157.4522 C.3     1  UNL1        0.0971
     35 C         142.1950  143.9241  156.6071 C.3     1  UNL1        0.0428
     36 C         142.2944  145.4074  156.8061 C.3     1  UNL1        0.0927
     37 N         141.4550  146.0820  157.8503 N.am    1  UNL1       -0.2887
     38 C         140.5162  145.2731  158.6955 C.2     1  UNL1        0.3043
     39 O         139.6767  145.9476  159.7397 O.2     1  UNL1       -0.2526
     40 H         141.5202  147.0556  157.9810 H       1  UNL1        0.1510
     41 C         138.4388  142.1165  158.6911 C.3     1  UNL1        0.0272
     42 C         138.1338  140.7593  159.2523 C.3     1  UNL1        0.0022
     43 C         137.7047  142.6094  157.4795 C.3     1  UNL1        0.0022
     44 C         139.7573  144.8925  163.7652 C.3     1  UNL1        0.0460
     45 C         141.1847  144.4561  163.9133 C.ar    1  UNL1       -0.0205
     46 C         142.2893  145.4690  163.8489 C.ar    1  UNL1       -0.0042
     47 C         143.7167  145.0326  163.9970 C.ar    1  UNL1       -0.0003
     48 C         144.0397  143.5833  164.2095 C.ar    1  UNL1       -0.0000
     49 C         142.9352  142.5704  164.2740 C.ar    1  UNL1       -0.0003
     50 C         141.5077  143.0068  164.1258 C.ar    1  UNL1       -0.0042
@<TRIPOS>BOND
     1    11    12    1
     2    12    13   ar
     3    13    14   ar
     4    14    15   ar
     5    15    16   ar
     6    16    17    1
     7    16    18   ar
     8    18    10    1
     9    10     9    1
    10     9     5    1
    11     5     6    2
    12     5     7   am
    13     7     4    1
    14     4    19    1
    15    19    20    1
    16    20    21   ar
    17    21    22   ar
    18    22    23   ar
    19    23    24   ar
    20    24    25   ar
    21     4     1    1
    22     1     2    1
    23     1    26    1
    24    27    26    1
    25    27    44    1
    26    44    45    1
    27    45    46   ar
    28    46    47   ar
    29    47    48   ar
    30    48    49   ar
    31    49    50   ar
    32    27    28    1
    33    28    29   am
    34    29    30    2
    35    29    32    1
    36    32    41    1
    37    41    42    1
    38    41    43    1
    39    32    33    1
    40    33    34    1
    41    34    35    1
    42    35    36    1
    43    36    37    1
    44    37    38   am
    45    38    39    2
    46    18    12   ar
    47    25    20   ar
    48    50    45   ar
    49    38    33   am
    50     7     8    1
    51     2     3    1
    52    28    31    1
    53    37    40    1
@<TRIPOS>MOLECULE
*****
 50 53 0 0 0
SMALL
GASTEIGER

@<TRIPOS>ATOM
      1 C         143.3768  139.2547  163.4919 C.3     1  UNL1        0.1303
      2 O         144.8353  139.0501  163.2074 O.3     1  UNL1       -0.3827
      3 H         145.0080  138.1060  163.0670 H       1  UNL1        0.2104
      4 C         142.8488  140.6354  163.7464 C.3     1  UNL1        0.1028
      5 C         142.6216  142.3203  161.7819 C.2     1  UNL1        0.2671
      6 O         144.0834  142.6401  161.8870 O.2     1  UNL1       -0.2711
      7 N         142.0043  141.3180  162.7115 N.am    1  UNL1       -0.3002
      8 H         141.0449  141.1082  162.6425 H       1  UNL1        0.1496
      9 C         141.7771  143.0030  160.7470 C.3     1  UNL1        0.2893
     10 O         140.9674  144.2103  161.1170 O.3     1  UNL1       -0.4663
     11 C         138.3076  142.8639  160.7809 C.3     1  UNL1        0.0342
     12 C         138.6786  143.4729  162.1006 C.ar    1  UNL1        0.0118
     13 C         137.7196  143.4087  163.2522 C.ar    1  UNL1       -0.0013
     14 C         138.0906  144.0176  164.5719 C.ar    1  UNL1       -0.0004
     15 C         139.4205  144.6908  164.7400 C.ar    1  UNL1       -0.0013
     16 C         140.3794  144.7550  163.5883 C.ar    1  UNL1        0.0118
     17 C         141.7093  145.4281  163.7564 C.3     1  UNL1        0.0342
     18 C         140.0084  144.1460  162.2687 C.ar    1  UNL1        0.1312
     19 C         143.1653  141.3336  165.0358 C.3     1  UNL1        0.0484
     20 C         142.2046  141.2577  166.1852 C.ar    1  UNL1       -0.0204
     21 C         141.4278  142.4736  166.5949 C.ar    1  UNL1       -0.0042
     22 C         140.4671  142.3977  167.7444 C.ar    1  UNL1       -0.0003
     23 C         140.2832  141.1058  168.4842 C.ar    1  UNL1       -0.0000
     24 C         141.0601  139.8898  168.0744 C.ar    1  UNL1       -0.0003
     25 C         142.0208  139.9658  166.9249 C.ar    1  UNL1       -0.0042
     26 C         142.4464  138.0786  163.5219 C.3     1  UNL1        0.0508
     27 C         141.4670  137.8684  162.4053 C.3     1  UNL1        0.0784
     28 N         141.9223  137.9685  160.9796 N.am    1  UNL1       -0.3042
     29 C         141.3964  139.0635  160.0995 C.2     1  UNL1        0.2406
     30 O         140.8852  139.6652  160.2097 O.2     1  UNL1       -0.2733
     31 H         142.5663  137.3156  160.6215 H       1  UNL1        0.1494
     32 C         141.8517  139.1637  158.6738 C.3     1  UNL1        0.1529
     33 N         141.6325  138.0153  157.7341 N.am    1  UNL1       -0.2574
     34 C         142.7665  137.0915  157.4014 C.3     1  UNL1        0.0971
     35 C         142.5472  135.9431  156.4615 C.3     1  UNL1        0.0428
     36 C         141.1941  135.7185  155.8545 C.3     1  UNL1        0.0927
     37 N         140.0602  136.6424  156.1872 N.am    1  UNL1       -0.2887
     38 C         140.2793  137.7907  157.1269 C.2     1  UNL1        0.3043
     39 O         139.1454  138.7146  157.4596 O.2     1  UNL1       -0.2526
     40 H         139.1720  136.4950  155.7887 H       1  UNL1        0.1510
     41 C         142.5262  140.4122  158.1879 C.3     1  UNL1        0.0272
     42 C         143.9273  140.7254  158.6223 C.3     1  UNL1        0.0022
     43 C         141.7995  141.3476  157.2674 C.3     1  UNL1        0.0022
     44 C         140.0324  137.5580  162.7145 C.3     1  UNL1        0.0460
     45 C         139.3575  138.2156  163.8814 C.ar    1  UNL1       -0.0205
     46 C         138.9290  137.3937  165.0609 C.ar    1  UNL1       -0.0042
     47 C         138.2540  138.0514  166.2278 C.ar    1  UNL1       -0.0003
     48 C         138.0075  139.5310  166.2154 C.ar    1  UNL1       -0.0000
     49 C         138.4359  140.3528  165.0361 C.ar    1  UNL1       -0.0003
     50 C         139.1109  139.6952  163.8690 C.ar    1  UNL1       -0.0042
@<TRIPOS>BOND
     1    11    12    1
     2    12    13   ar
     3    13    14   ar
     4    14    15   ar
     5    15    16   ar
     6    16    17    1
     7    16    18   ar
     8    18    10    1
     9    10     9    1
    10     9     5    1
    11     5     6    2
    12     5     7   am
    13     7     4    1
    14     4    19    1
    15    19    20    1
    16    20    21   ar
    17    21    22   ar
    18    22    23   ar
    19    23    24   ar
    20    24    25   ar
    21     4     1    1
    22     1     2    1
    23     1    26    1
    24    27    26    1
    25    27    44    1
    26    44    45    1
    27    45    46   ar
    28    46    47   ar
    29    47    48   ar
    30    48    49   ar
    31    49    50   ar
    32    27    28    1
    33    28    29   am
    34    29    30    2
    35    29    32    1
    36    32    41    1
    37    41    42    1
    38    41    43    1
    39    32    33    1
    40    33    34    1
    41    34    35    1
    42    35    36    1
    43    36    37    1
    44    37    38   am
    45    38    39    2
    46    18    12   ar
    47    25    20   ar
    48    50    45   ar
    49    38    33   am
    50     7     8    1
    51     2     3    1
    52    28    31    1
    53    37    40    1
@<TRIPOS>MOLECULE
*****
 50 53 0 0 0
SMALL
GASTEIGER

@<TRIPOS>ATOM
      1 C         144.7735  141.5564  163.6122 C.3     1  UNL1        0.1303
      2 O         145.9865  142.2903  163.1222 O.3     1  UNL1       -0.3827
      3 H         146.6096  141.6590  162.7296 H       1  UNL1        0.2104
      4 C         143.6534  142.3107  164.2650 C.3     1  UNL1        0.1028
      5 C         142.8435  144.1312  162.5976 C.2     1  UNL1        0.2671
      6 O         144.2104  144.7490  162.6083 O.2     1  UNL1       -0.2711
      7 N         142.5650  142.9120  163.4259 N.am    1  UNL1       -0.3002
      8 H         141.6679  142.5065  163.4189 H       1  UNL1        0.1496
      9 C         141.7553  144.7325  161.7585 C.3     1  UNL1        0.2893
     10 O         140.4505  145.1209  162.3884 O.3     1  UNL1       -0.4663
     11 C         139.2433  144.8244  165.1187 C.3     1  UNL1        0.0342
     12 C         138.7938  143.9331  163.9991 C.ar    1  UNL1        0.0118
     13 C         137.7407  142.8936  164.2446 C.ar    1  UNL1       -0.0013
     14 C         137.2912  142.0023  163.1249 C.ar    1  UNL1       -0.0004
     15 C         137.8947  142.1506  161.7598 C.ar    1  UNL1       -0.0013
     16 C         138.9478  143.1901  161.5143 C.ar    1  UNL1        0.0118
     17 C         139.5515  143.3384  160.1491 C.3     1  UNL1        0.0342
     18 C         139.3974  144.0814  162.6339 C.ar    1  UNL1        0.1312
     19 C         143.6215  142.4638  165.7568 C.3     1  UNL1        0.0484
     20 C         142.6148  141.7027  166.5675 C.ar    1  UNL1       -0.0204
     21 C         142.8780  140.2739  166.9407 C.ar    1  UNL1       -0.0042
     22 C         141.8712  139.5129  167.7514 C.ar    1  UNL1       -0.0003
     23 C         140.6012  140.1806  168.1889 C.ar    1  UNL1       -0.0000
     24 C         140.3381  141.6094  167.8157 C.ar    1  UNL1       -0.0003
     25 C         141.3448  142.3704  167.0050 C.ar    1  UNL1       -0.0042
     26 C         144.6807  140.0682  163.4495 C.3     1  UNL1        0.0508
     27 C         143.5701  139.4702  162.6376 C.3     1  UNL1        0.0784
     28 N         143.2078  140.0654  161.3093 N.am    1  UNL1       -0.3042
     29 C         143.7251  139.4472  160.0443 C.2     1  UNL1        0.2406
     30 O         144.1903  138.8199  159.8845 O.2     1  UNL1       -0.2733
     31 H         142.6304  140.8617  161.2677 H       1  UNL1        0.1494
     32 C         143.3628  140.0424  158.7160 C.3     1  UNL1        0.1529
     33 N         144.3829  140.8216  157.9399 N.am    1  UNL1       -0.2574
     34 C         144.8873  140.2982  156.6278 C.3     1  UNL1        0.0971
     35 C         145.9074  141.0775  155.8517 C.3     1  UNL1        0.0428
     36 C         146.4231  142.3800  156.3878 C.3     1  UNL1        0.0927
     37 N         145.9187  142.9034  157.7000 N.am    1  UNL1       -0.2887
     38 C         144.8986  142.1242  158.4760 C.2     1  UNL1        0.3043
     39 O         144.3942  142.6475  159.7882 O.2     1  UNL1       -0.2526
     40 H         146.2572  143.7583  158.0518 H       1  UNL1        0.1510
     41 C         141.9804  139.8583  158.1637 C.3     1  UNL1        0.0272
     42 C         141.1433  141.0555  157.8230 C.3     1  UNL1        0.0022
     43 C         141.4351  138.4771  157.9520 C.3     1  UNL1        0.0022
     44 C         142.8219  138.2772  163.1541 C.3     1  UNL1        0.0460
     45 C         141.5023  138.4603  163.8434 C.ar    1  UNL1       -0.0205
     46 C         140.7963  137.2780  164.4382 C.ar    1  UNL1       -0.0042
     47 C         139.4768  137.4611  165.1275 C.ar    1  UNL1       -0.0003
     48 C         138.8631  138.8266  165.2221 C.ar    1  UNL1       -0.0000
     49 C         139.5690  140.0089  164.6273 C.ar    1  UNL1       -0.0003
     50 C         140.8886  139.8258  163.9380 C.ar    1  UNL1       -0.0042
@<TRIPOS>BOND
     1    11    12    1
     2    12    13   ar
     3    13    14   ar
     4    14    15   ar
     5    15    16   ar
     6    16    17    1
     7    16    18   ar
     8    18    10    1
     9    10     9    1
    10     9     5    1
    11     5     6    2
    12     5     7   am
    13     7     4    1
    14     4    19    1
    15    19    20    1
    16    20    21   ar
    17    21    22   ar
    18    22    23   ar
    19    23    24   ar
    20    24    25   ar
    21     4     1    1
    22     1     2    1
    23     1    26    1
    24    27    26    1
    25    27    44    1
    26    44    45    1
    27    45    46   ar
    28    46    47   ar
    29    47    48   ar
    30    48    49   ar
    31    49    50   ar
    32    27    28    1
    33    28    29   am
    34    29    30    2
    35    29    32    1
    36    32    41    1
    37    41    42    1
    38    41    43    1
    39    32    33    1
    40    33    34    1
    41    34    35    1
    42    35    36    1
    43    36    37    1
    44    37    38   am
    45    38    39    2
    46    18    12   ar
    47    25    20   ar
    48    50    45   ar
    49    38    33   am
    50     7     8    1
    51     2     3    1
    52    28    31    1
    53    37    40    1
@<TRIPOS>MOLECULE
*****
 50 53 0 0 0
SMALL
GASTEIGER

@<TRIPOS>ATOM
      1 C         140.6467  144.6822  163.7318 C.3     1  UNL1        0.1303
      2 O         139.6367  145.6604  163.2094 O.3     1  UNL1       -0.3827
      3 H         140.0946  146.4314  162.8395 H       1  UNL1        0.2104
      4 C         140.1921  143.3975  164.3586 C.3     1  UNL1        0.1028
      5 C         138.4351  142.2436  162.8317 C.2     1  UNL1        0.2671
      6 O         137.4982  143.3968  163.0385 O.2     1  UNL1       -0.2711
      7 N         139.7820  142.2440  163.4918 N.am    1  UNL1       -0.3002
      8 H         140.3969  141.4872  163.3561 H       1  UNL1        0.1496
      9 C         138.0249  141.0902  161.9649 C.3     1  UNL1        0.2893
     10 O         137.7391  139.7531  162.5816 O.3     1  UNL1       -0.4663
     11 C         139.5648  138.2060  160.7724 C.3     1  UNL1        0.0342
     12 C         139.7710  138.1668  162.2576 C.ar    1  UNL1        0.0118
     13 C         140.8900  137.3540  162.8382 C.ar    1  UNL1       -0.0013
     14 C         141.0962  137.3148  164.3235 C.ar    1  UNL1       -0.0004
     15 C         140.1834  138.0883  165.2281 C.ar    1  UNL1       -0.0013
     16 C         139.0643  138.9010  164.6475 C.ar    1  UNL1        0.0118
     17 C         138.1514  139.6745  165.5521 C.3     1  UNL1        0.0342
     18 C         138.8582  138.9403  163.1622 C.ar    1  UNL1        0.1312
     19 C         140.1476  143.2662  165.8522 C.3     1  UNL1        0.0484
     20 C         140.8222  142.1069  166.5236 C.ar    1  UNL1       -0.0204
     21 C         140.2016  141.4771  167.7353 C.ar    1  UNL1       -0.0042
     22 C         140.8762  140.3178  168.4067 C.ar    1  UNL1       -0.0003
     23 C         142.1715  139.7882  167.8665 C.ar    1  UNL1       -0.0000
     24 C         142.7921  140.4180  166.6548 C.ar    1  UNL1       -0.0003
     25 C         142.1175  141.5774  165.9834 C.ar    1  UNL1       -0.0042
     26 C         142.1114  144.9886  163.6275 C.3     1  UNL1        0.0508
     27 C         142.8986  144.4963  162.4493 C.3     1  UNL1        0.0784
     28 N         142.3486  144.6509  161.0624 N.am    1  UNL1       -0.3042
     29 C         141.4241  143.6111  160.5019 C.2     1  UNL1        0.2406
     30 O         141.1215  142.9295  160.7836 O.2     1  UNL1       -0.2733
     31 H         142.5945  145.4348  160.5199 H       1  UNL1        0.1494
     32 C         140.8741  143.7657  159.1150 C.3     1  UNL1        0.1529
     33 N         140.1359  142.6304  158.4700 N.am    1  UNL1       -0.2574
     34 C         138.6391  142.5692  158.5468 C.3     1  UNL1        0.0971
     35 C         137.9008  141.4338  157.9018 C.3     1  UNL1        0.0428
     36 C         138.6593  140.3598  157.1801 C.3     1  UNL1        0.0927
     37 N         140.1561  140.4210  157.1033 N.am    1  UNL1       -0.2887
     38 C         140.8944  141.5563  157.7482 C.2     1  UNL1        0.3043
     39 O         142.3912  141.6175  157.6714 O.2     1  UNL1       -0.2526
     40 H         140.6539  139.7160  156.6296 H       1  UNL1        0.1510
     41 C         141.0625  145.0556  158.3730 C.3     1  UNL1        0.0272
     42 C         142.2743  145.2555  157.5119 C.3     1  UNL1        0.0022
     43 C         140.0389  146.1458  158.4920 C.3     1  UNL1        0.0022
     44 C         144.2357  143.8494  162.6582 C.3     1  UNL1        0.0460
     45 C         144.3183  142.3902  162.9956 C.ar    1  UNL1       -0.0205
     46 C         145.4510  141.8774  163.8348 C.ar    1  UNL1       -0.0042
     47 C         145.5336  140.4182  164.1723 C.ar    1  UNL1       -0.0003
     48 C         144.4836  139.4718  163.6706 C.ar    1  UNL1       -0.0000
     49 C         143.3509  139.9845  162.8315 C.ar    1  UNL1       -0.0003
     50 C         143.2683  141.4437  162.4940 C.ar    1  UNL1       -0.0042
@<TRIPOS>BOND
     1    11    12    1
     2    12    13   ar
     3    13    14   ar
     4    14    15   ar
     5    15    16   ar
     6    16    17    1
     7    16    18   ar
     8    18    10    1
     9    10     9    1
    10     9     5    1
    11     5     6    2
    12     5     7   am
    13     7     4    1
    14     4    19    1
    15    19    20    1
    16    20    21   ar
    17    21    22   ar
    18    22    23   ar
    19    23    24   ar
    20    24    25   ar
    21     4     1    1
    22     1     2    1
    23     1    26    1
    24    27    26    1
    25    27    44    1
    26    44    45    1
    27    45    46   ar
    28    46    47   ar
    29    47    48   ar
    30    48    49   ar
    31    49    50   ar
    32    27    28    1
    33    28    29   am
    34    29    30    2
    35    29    32    1
    36    32    41    1
    37    41    42    1
    38    41    43    1
    39    32    33    1
    40    33    34    1
    41    34    35    1
    42    35    36    1
    43    36    37    1
    44    37    38   am
    45    38    39    2
    46    18    12   ar
    47    25    20   ar
    48    50    45   ar
    49    38    33   am
    50     7     8    1
    51     2     3    1
    52    28    31    1
    53    37    40    1
@<TRIPOS>MOLECULE
*****
 50 53 0 0 0
SMALL
GASTEIGER

@<TRIPOS>ATOM
      1 C         142.3777  144.2774  161.9935 C.3     1  UNL1        0.1303
      2 O         142.0512  145.3205  160.9662 O.3     1  UNL1       -0.3827
      3 H         142.8677  145.6135  160.5322 H       1  UNL1        0.2104
      4 C         141.2812  143.6590  162.8092 C.3     1  UNL1        0.1028
      5 C         139.3746  142.8288  161.2517 C.2     1  UNL1        0.2671
      6 O         139.1012  144.2430  160.8327 O.2     1  UNL1       -0.2711
      7 N         140.4646  142.5368  162.2399 N.am    1  UNL1       -0.3002
      8 H         140.6441  141.6087  162.5149 H       1  UNL1        0.1496
      9 C         138.5580  141.7067  160.6824 C.3     1  UNL1        0.2893
     10 O         137.5309  141.0200  161.5330 O.3     1  UNL1       -0.4663
     11 C         137.4797  142.3025  164.2446 C.3     1  UNL1        0.0342
     12 C         137.9322  140.8801  164.0962 C.ar    1  UNL1        0.0118
     13 C         138.3591  140.0990  165.3034 C.ar    1  UNL1       -0.0013
     14 C         138.8115  138.6766  165.1550 C.ar    1  UNL1       -0.0004
     15 C         138.8371  138.0353  163.7992 C.ar    1  UNL1       -0.0013
     16 C         138.4103  138.8165  162.5920 C.ar    1  UNL1        0.0118
     17 C         138.4359  138.1752  161.2361 C.3     1  UNL1        0.0342
     18 C         137.9578  140.2389  162.7404 C.ar    1  UNL1        0.1312
     19 C         141.0012  144.1628  164.1940 C.3     1  UNL1        0.0484
     20 C         141.3309  143.3100  165.3832 C.ar    1  UNL1       -0.0204
     21 C         142.7202  142.7723  165.5584 C.ar    1  UNL1       -0.0042
     22 C         143.0499  141.9195  166.7476 C.ar    1  UNL1       -0.0003
     23 C         141.9902  141.6046  167.7616 C.ar    1  UNL1       -0.0000
     24 C         140.6010  142.1424  167.5863 C.ar    1  UNL1       -0.0003
     25 C         140.2713  142.9951  166.3971 C.ar    1  UNL1       -0.0042
     26 C         143.8006  143.8527  162.2052 C.3     1  UNL1        0.0508
     27 C         144.3592  142.6921  161.4365 C.3     1  UNL1        0.0784
     28 N         144.1725  142.6174  159.9501 N.am    1  UNL1       -0.3042
     29 C         142.9616  141.9409  159.3793 C.2     1  UNL1        0.2406
     30 O         142.3296  141.5747  159.6987 O.2     1  UNL1       -0.2733
     31 H         144.8448  143.0125  159.3491 H       1  UNL1        0.1494
     32 C         142.7749  141.8662  157.8928 C.3     1  UNL1        0.1529
     33 N         143.4789  140.8047  157.1009 N.am    1  UNL1       -0.2574
     34 C         142.7098  139.6322  156.5681 C.3     1  UNL1        0.0971
     35 C         143.4139  138.5706  155.7761 C.3     1  UNL1        0.0428
     36 C         144.8871  138.6814  155.5169 C.3     1  UNL1        0.0927
     37 N         145.6563  139.8539  156.0496 N.am    1  UNL1       -0.2887
     38 C         144.9522  140.9155  156.8416 C.2     1  UNL1        0.3043
     39 O         145.7214  142.0879  157.3743 O.2     1  UNL1       -0.2526
     40 H         146.6233  139.9266  155.8795 H       1  UNL1        0.1510
     41 C         141.8841  142.8532  157.1983 C.3     1  UNL1        0.0272
     42 C         140.4148  142.5786  157.0728 C.3     1  UNL1        0.0022
     43 C         142.4626  144.1149  156.6293 C.3     1  UNL1        0.0022
     44 C         145.1044  141.6061  162.1543 C.3     1  UNL1        0.0460
     45 C         144.3650  140.6495  163.0420 C.ar    1  UNL1       -0.0205
     46 C         145.0740  139.9866  164.1857 C.ar    1  UNL1       -0.0042
     47 C         144.3346  139.0301  165.0734 C.ar    1  UNL1       -0.0003
     48 C         142.8861  138.7363  164.8175 C.ar    1  UNL1       -0.0000
     49 C         142.1770  139.3991  163.6739 C.ar    1  UNL1       -0.0003
     50 C         142.9165  140.3557  162.7861 C.ar    1  UNL1       -0.0042
@<TRIPOS>BOND
     1    11    12    1
     2    12    13   ar
     3    13    14   ar
     4    14    15   ar
     5    15    16   ar
     6    16    17    1
     7    16    18   ar
     8    18    10    1
     9    10     9    1
    10     9     5    1
    11     5     6    2
    12     5     7   am
    13     7     4    1
    14     4    19    1
    15    19    20    1
    16    20    21   ar
    17    21    22   ar
    18    22    23   ar
    19    23    24   ar
    20    24    25   ar
    21     4     1    1
    22     1     2    1
    23     1    26    1
    24    27    26    1
    25    27    44    1
    26    44    45    1
    27    45    46   ar
    28    46    47   ar
    29    47    48   ar
    30    48    49   ar
    31    49    50   ar
    32    27    28    1
    33    28    29   am
    34    29    30    2
    35    29    32    1
    36    32    41    1
    37    41    42    1
    38    41    43    1
    39    32    33    1
    40    33    34    1
    41    34    35    1
    42    35    36    1
    43    36    37    1
    44    37    38   am
    45    38    39    2
    46    18    12   ar
    47    25    20   ar
    48    50    45   ar
    49    38    33   am
    50     7     8    1
    51     2     3    1
    52    28    31    1
    53    37    40    1
@<TRIPOS>MOLECULE
*****
 50 53 0 0 0
SMALL
GASTEIGER

@<TRIPOS>ATOM
      1 C         140.6348  144.3768  162.9455 C.3     1  UNL1        0.1303
      2 O         141.0307  145.5460  162.0932 O.3     1  UNL1       -0.3827
      3 H         140.2436  146.0702  161.8777 H       1  UNL1        0.2104
      4 C         141.6761  143.4056  163.4169 C.3     1  UNL1        0.1028
      5 C         143.2445  142.3507  161.6343 C.2     1  UNL1        0.2671
      6 O         144.0389  143.6220  161.5811 O.2     1  UNL1       -0.2711
      7 N         142.0630  142.2425  162.5522 N.am    1  UNL1       -0.3002
      8 H         141.5416  141.4082  162.5871 H       1  UNL1        0.1496
      9 C         143.6315  141.1878  160.7696 C.3     1  UNL1        0.2893
     10 O         144.2746  139.9790  161.3822 O.3     1  UNL1       -0.4663
     11 C         141.9952  138.0288  161.3471 C.3     1  UNL1        0.0342
     12 C         142.6065  138.4446  162.6523 C.ar    1  UNL1        0.0118
     13 C         142.0781  137.8853  163.9399 C.ar    1  UNL1       -0.0013
     14 C         142.6894  138.3011  165.2450 C.ar    1  UNL1       -0.0004
     15 C         143.8291  139.2762  165.2626 C.ar    1  UNL1       -0.0013
     16 C         144.3575  139.8354  163.9750 C.ar    1  UNL1        0.0118
     17 C         145.4972  140.8106  163.9925 C.3     1  UNL1        0.0342
     18 C         143.7462  139.4197  162.6698 C.ar    1  UNL1        0.1312
     19 C         142.3304  143.5973  164.7529 C.3     1  UNL1        0.0484
     20 C         142.0765  142.6175  165.8599 C.ar    1  UNL1       -0.0204
     21 C         143.1017  142.4205  166.9371 C.ar    1  UNL1       -0.0042
     22 C         142.8477  141.4407  168.0441 C.ar    1  UNL1       -0.0003
     23 C         141.5685  140.6578  168.0740 C.ar    1  UNL1       -0.0000
     24 C         140.5433  140.8548  166.9968 C.ar    1  UNL1       -0.0003
     25 C         140.7973  141.8346  165.8898 C.ar    1  UNL1       -0.0042
     26 C         139.1975  144.1790  163.3264 C.3     1  UNL1        0.0508
     27 C         138.3228  143.2745  162.5098 C.3     1  UNL1        0.0784
     28 N         138.2868  143.4135  161.0167 N.am    1  UNL1       -0.3042
     29 C         139.3388  142.7527  160.1763 C.2     1  UNL1        0.2406
     30 O         139.9753  142.3014  160.3396 O.2     1  UNL1       -0.2733
     31 H         137.5726  143.9386  160.5884 H       1  UNL1        0.1494
     32 C         139.3027  142.8917  158.6832 C.3     1  UNL1        0.1529
     33 N         140.2799  143.7944  157.9902 N.am    1  UNL1       -0.2574
     34 C         141.0693  143.2876  156.8197 C.3     1  UNL1        0.0971
     35 C         142.0465  144.1903  156.1267 C.3     1  UNL1        0.0428
     36 C         142.2343  145.5998  156.6042 C.3     1  UNL1        0.0927
     37 N         141.4449  146.1066  157.7747 N.am    1  UNL1       -0.2887
     38 C         140.4678  145.2040  158.4677 C.2     1  UNL1        0.3043
     39 O         139.6784  145.7108  159.6382 O.2     1  UNL1       -0.2526
     40 H         141.5682  147.0317  158.0881 H       1  UNL1        0.1510
     41 C         138.2895  142.1282  157.8831 C.3     1  UNL1        0.0272
     42 C         138.1666  140.6426  158.0504 C.3     1  UNL1        0.0022
     43 C         137.3991  142.8501  156.9156 C.3     1  UNL1        0.0022
     44 C         137.4843  142.2309  163.1864 C.3     1  UNL1        0.0460
     45 C         137.8311  140.7790  163.0395 C.ar    1  UNL1       -0.0205
     46 C         137.6677  140.0993  161.7122 C.ar    1  UNL1       -0.0042
     47 C         138.0146  138.6475  161.5653 C.ar    1  UNL1       -0.0003
     48 C         138.5249  137.8751  162.7456 C.ar    1  UNL1       -0.0000
     49 C         138.6884  138.5547  164.0728 C.ar    1  UNL1       -0.0003
     50 C         138.3415  140.0067  164.2197 C.ar    1  UNL1       -0.0042
@<TRIPOS>BOND
     1    11    12    1
     2    12    13   ar
     3    13    14   ar
     4    14    15   ar
     5    15    16   ar
     6    16    17    1
     7    16    18   ar
     8    18    10    1
     9    10     9    1
    10     9     5    1
    11     5     6    2
    12     5     7   am
    13     7     4    1
    14     4    19    1
    15    19    20    1
    16    20    21   ar
    17    21    22   ar
    18    22    23   ar
    19    23    24   ar
    20    24    25   ar
    21     4     1    1
    22     1     2    1
    23     1    26    1
    24    27    26    1
    25    27    44    1
    26    44    45    1
    27    45    46   ar
    28    46    47   ar
    29    47    48   ar
    30    48    49   ar
    31    49    50   ar
    32    27    28    1
    33    28    29   am
    34    29    30    2
    35    29    32    1
    36    32    41    1
    37    41    42    1
    38    41    43    1
    39    32    33    1
    40    33    34    1
    41    34    35    1
    42    35    36    1
    43    36    37    1
    44    37    38   am
    45    38    39    2
    46    18    12   ar
    47    25    20   ar
    48    50    45   ar
    49    38    33   am
    50     7     8    1
    51     2     3    1
    52    28    31    1
    53    37    40    1
@<TRIPOS>MOLECULE
*****
 50 53 0 0 0
SMALL
GASTEIGER

@<TRIPOS>ATOM
      1 C         140.6732  144.6909  163.7418 C.3     1  UNL1        0.1303
      2 O         139.6636  145.6341  163.1578 O.3     1  UNL1       -0.3827
      3 H         140.1187  146.4079  162.7903 H       1  UNL1        0.2104
      4 C         140.2225  143.4090  164.3770 C.3     1  UNL1        0.1028
      5 C         138.4811  142.2348  162.8476 C.2     1  UNL1        0.2671
      6 O         137.5386  143.3863  163.0367 O.2     1  UNL1       -0.2711
      7 N         139.8230  142.2461  163.5177 N.am    1  UNL1       -0.3002
      8 H         140.4416  141.4904  163.3936 H       1  UNL1        0.1496
      9 C         138.0817  141.0720  161.9884 C.3     1  UNL1        0.2893
     10 O         137.7738  139.7455  162.6173 O.3     1  UNL1       -0.4663
     11 C         138.1511  139.6693  165.5926 C.3     1  UNL1        0.0342
     12 C         139.0669  138.8852  164.7001 C.ar    1  UNL1        0.0118
     13 C         140.1714  138.0630  165.2952 C.ar    1  UNL1       -0.0013
     14 C         141.0872  137.2790  164.4027 C.ar    1  UNL1       -0.0004
     15 C         140.8986  137.3170  162.9152 C.ar    1  UNL1       -0.0013
     16 C         139.7941  138.1392  162.3201 C.ar    1  UNL1        0.0118
     17 C         139.6054  138.1773  160.8324 C.3     1  UNL1        0.0342
     18 C         138.8783  138.9233  163.2125 C.ar    1  UNL1        0.1312
     19 C         140.1712  143.2899  165.8713 C.3     1  UNL1        0.0484
     20 C         140.8214  142.1229  166.5534 C.ar    1  UNL1       -0.0204
     21 C         142.1263  141.5875  166.0429 C.ar    1  UNL1       -0.0042
     22 C         142.7765  140.4205  166.7250 C.ar    1  UNL1       -0.0003
     23 C         142.1219  139.7889  167.9177 C.ar    1  UNL1       -0.0000
     24 C         140.8171  140.3243  168.4283 C.ar    1  UNL1       -0.0003
     25 C         140.1668  141.4913  167.7461 C.ar    1  UNL1       -0.0042
     26 C         142.1335  145.0297  163.6907 C.3     1  UNL1        0.0508
     27 C         142.9851  144.5108  162.5701 C.3     1  UNL1        0.0784
     28 N         142.5320  144.6686  161.1489 N.am    1  UNL1       -0.3042
     29 C         141.5924  143.6671  160.5456 C.2     1  UNL1        0.2406
     30 O         141.2380  143.0066  160.8171 O.2     1  UNL1       -0.2733
     31 H         142.8515  145.4295  160.6120 H       1  UNL1        0.1494
     32 C         141.1394  143.8249  159.1244 C.3     1  UNL1        0.1529
     33 N         140.7186  142.6219  158.3334 N.am    1  UNL1       -0.2574
     34 C         141.7395  141.8324  157.5688 C.3     1  UNL1        0.0971
     35 C         141.3187  140.6294  156.7777 C.3     1  UNL1        0.0428
     36 C         139.8771  140.2159  156.7513 C.3     1  UNL1        0.0927
     37 N         138.8563  141.0053  157.5158 N.am    1  UNL1       -0.2887
     38 C         139.2770  142.2083  158.3069 C.2     1  UNL1        0.3043
     39 O         138.2561  142.9977  159.0714 O.2     1  UNL1       -0.2526
     40 H         137.9101  140.7339  157.4985 H       1  UNL1        0.1510
     41 C         141.1071  145.1856  158.4942 C.3     1  UNL1        0.0272
     42 C         140.0181  146.1528  158.8532 C.3     1  UNL1        0.0022
     43 C         142.1637  145.5794  157.5050 C.3     1  UNL1        0.0022
     44 C         144.2895  143.8341  162.8707 C.3     1  UNL1        0.0460
     45 C         144.3255  142.3578  163.1337 C.ar    1  UNL1       -0.0205
     46 C         143.2378  141.4740  162.5989 C.ar    1  UNL1       -0.0042
     47 C         143.2738  139.9977  162.8618 C.ar    1  UNL1       -0.0003
     48 C         144.3974  139.4051  163.6596 C.ar    1  UNL1       -0.0000
     49 C         145.4850  140.2889  164.1944 C.ar    1  UNL1       -0.0003
     50 C         145.4491  141.7653  163.9314 C.ar    1  UNL1       -0.0042
@<TRIPOS>BOND
     1    11    12    1
     2    12    13   ar
     3    13    14   ar
     4    14    15   ar
     5    15    16   ar
     6    16    17    1
     7    16    18   ar
     8    18    10    1
     9    10     9    1
    10     9     5    1
    11     5     6    2
    12     5     7   am
    13     7     4    1
    14     4    19    1
    15    19    20    1
    16    20    21   ar
    17    21    22   ar
    18    22    23   ar
    19    23    24   ar
    20    24    25   ar
    21     4     1    1
    22     1     2    1
    23     1    26    1
    24    27    26    1
    25    27    44    1
    26    44    45    1
    27    45    46   ar
    28    46    47   ar
    29    47    48   ar
    30    48    49   ar
    31    49    50   ar
    32    27    28    1
    33    28    29   am
    34    29    30    2
    35    29    32    1
    36    32    41    1
    37    41    42    1
    38    41    43    1
    39    32    33    1
    40    33    34    1
    41    34    35    1
    42    35    36    1
    43    36    37    1
    44    37    38   am
    45    38    39    2
    46    18    12   ar
    47    25    20   ar
    48    50    45   ar
    49    38    33   am
    50     7     8    1
    51     2     3    1
    52    28    31    1
    53    37    40    1
@<TRIPOS>MOLECULE
*****
 50 53 0 0 0
SMALL
GASTEIGER

@<TRIPOS>ATOM
      1 C         138.1116  143.0280  163.1042 C.3     1  UNL1        0.1303
      2 O         137.3922  144.2217  162.5497 O.3     1  UNL1       -0.3827
      3 H         136.5267  143.9476  162.2079 H       1  UNL1        0.2104
      4 C         139.4803  143.1860  163.6972 C.3     1  UNL1        0.1028
      5 C         140.9971  144.4061  161.9764 C.2     1  UNL1        0.2671
      6 O         140.1002  145.6069  162.0374 O.2     1  UNL1       -0.2711
      7 N         140.6871  143.1956  162.8063 N.am    1  UNL1       -0.3002
      8 H         141.2757  142.4074  162.7663 H       1  UNL1        0.1496
      9 C         142.2038  144.4157  161.0856 C.3     1  UNL1        0.2893
     10 O         143.5783  144.4557  161.6850 O.3     1  UNL1       -0.4663
     11 C         143.9208  144.6642  164.6581 C.3     1  UNL1        0.0342
     12 C         144.2619  143.3857  163.9517 C.ar    1  UNL1        0.0118
     13 C         144.7743  142.2114  164.7318 C.ar    1  UNL1       -0.0013
     14 C         145.1154  140.9329  164.0254 C.ar    1  UNL1       -0.0004
     15 C         144.9441  140.8286  162.5389 C.ar    1  UNL1       -0.0013
     16 C         144.4318  142.0028  161.7588 C.ar    1  UNL1        0.0118
     17 C         144.2605  141.8986  160.2722 C.3     1  UNL1        0.0342
     18 C         144.0907  143.2814  162.4652 C.ar    1  UNL1        0.1312
     19 C         139.6423  143.3343  165.1810 C.3     1  UNL1        0.0484
     20 C         140.2158  142.2083  165.9892 C.ar    1  UNL1       -0.0204
     21 C         139.3804  140.9991  166.2891 C.ar    1  UNL1       -0.0042
     22 C         139.9539  139.8731  167.0973 C.ar    1  UNL1       -0.0003
     23 C         141.3628  139.9563  167.6055 C.ar    1  UNL1       -0.0000
     24 C         142.1981  141.1655  167.3055 C.ar    1  UNL1       -0.0003
     25 C         141.6246  142.2916  166.4973 C.ar    1  UNL1       -0.0042
     26 C         137.4624  141.6764  163.0657 C.3     1  UNL1        0.0508
     27 C         137.8268  140.6997  161.9872 C.3     1  UNL1        0.0784
     28 N         137.9230  141.1575  160.5620 N.am    1  UNL1       -0.3042
     29 C         139.2527  141.5465  159.9872 C.2     1  UNL1        0.2406
     30 O         139.9947  141.5738  160.2773 O.2     1  UNL1       -0.2733
     31 H         137.1132  141.2027  160.0038 H       1  UNL1        0.1494
     32 C         139.3488  142.0043  158.5621 C.3     1  UNL1        0.1529
     33 N         140.2746  143.1262  158.1955 N.am    1  UNL1       -0.2574
     34 C         139.8226  144.5491  158.3399 C.3     1  UNL1        0.0971
     35 C         140.7484  145.6710  157.9733 C.3     1  UNL1        0.0428
     36 C         142.1261  145.3699  157.4624 C.3     1  UNL1        0.0927
     37 N         142.5781  143.9469  157.3180 N.am    1  UNL1       -0.2887
     38 C         141.6524  142.8251  157.6845 C.2     1  UNL1        0.3043
     39 O         142.1044  141.4021  157.5401 O.2     1  UNL1       -0.2526
     40 H         143.4824  143.7493  156.9826 H       1  UNL1        0.1510
     41 C         138.5192  141.3403  157.5034 C.3     1  UNL1        0.0272
     42 C         138.8883  139.9731  157.0091 C.3     1  UNL1        0.0022
     43 C         137.3204  142.0436  156.9391 C.3     1  UNL1        0.0022
     44 C         138.0952  139.2652  162.3338 C.3     1  UNL1        0.0460
     45 C         139.3537  138.8918  163.0595 C.ar    1  UNL1       -0.0205
     46 C         139.3977  137.6444  163.8915 C.ar    1  UNL1       -0.0042
     47 C         140.6562  137.2710  164.6172 C.ar    1  UNL1       -0.0003
     48 C         141.8707  138.1449  164.5110 C.ar    1  UNL1       -0.0000
     49 C         141.8267  139.3922  163.6790 C.ar    1  UNL1       -0.0003
     50 C         140.5682  139.7657  162.9533 C.ar    1  UNL1       -0.0042
@<TRIPOS>BOND
     1    11    12    1
     2    12    13   ar
     3    13    14   ar
     4    14    15   ar
     5    15    16   ar
     6    16    17    1
     7    16    18   ar
     8    18    10    1
     9    10     9    1
    10     9     5    1
    11     5     6    2
    12     5     7   am
    13     7     4    1
    14     4    19    1
    15    19    20    1
    16    20    21   ar
    17    21    22   ar
    18    22    23   ar
    19    23    24   ar
    20    24    25   ar
    21     4     1    1
    22     1     2    1
    23     1    26    1
    24    27    26    1
    25    27    44    1
    26    44    45    1
    27    45    46   ar
    28    46    47   ar
    29    47    48   ar
    30    48    49   ar
    31    49    50   ar
    32    27    28    1
    33    28    29   am
    34    29    30    2
    35    29    32    1
    36    32    41    1
    37    41    42    1
    38    41    43    1
    39    32    33    1
    40    33    34    1
    41    34    35    1
    42    35    36    1
    43    36    37    1
    44    37    38   am
    45    38    39    2
    46    18    12   ar
    47    25    20   ar
    48    50    45   ar
    49    38    33   am
    50     7     8    1
    51     2     3    1
    52    28    31    1
    53    37    40    1
@<TRIPOS>MOLECULE
*****
 50 53 0 0 0
SMALL
GASTEIGER

@<TRIPOS>ATOM
      1 C         142.3209  138.3821  161.6440 C.3     1  UNL1        0.1303
      2 O         141.8102  137.0160  161.9945 O.3     1  UNL1       -0.3827
      3 H         142.4943  136.5301  162.4811 H       1  UNL1        0.2104
      4 C         141.4481  139.3371  160.8850 C.3     1  UNL1        0.1028
      5 C         139.0377  139.4415  161.8489 C.2     1  UNL1        0.2671
      6 O         138.7923  138.0354  161.3874 O.2     1  UNL1       -0.2711
      7 N         140.3656  140.0923  161.5977 N.am    1  UNL1       -0.3002
      8 H         140.5266  141.0151  161.9006 H       1  UNL1        0.1496
      9 C         137.9552  140.1966  162.5616 C.3     1  UNL1        0.2893
     10 O         137.4654  141.5033  162.0116 O.3     1  UNL1       -0.4663
     11 C         137.9097  142.9479  164.6031 C.3     1  UNL1        0.0342
     12 C         138.5727  143.4359  163.3492 C.ar    1  UNL1        0.0118
     13 C         139.4579  144.6461  163.3910 C.ar    1  UNL1       -0.0013
     14 C         140.1209  145.1341  162.1371 C.ar    1  UNL1       -0.0004
     15 C         139.8987  144.4118  160.8413 C.ar    1  UNL1       -0.0013
     16 C         139.0136  143.2016  160.7995 C.ar    1  UNL1        0.0118
     17 C         138.7914  142.4793  159.5038 C.3     1  UNL1        0.0342
     18 C         138.3506  142.7136  162.0535 C.ar    1  UNL1        0.1312
     19 C         141.6578  139.5370  159.4132 C.3     1  UNL1        0.0484
     20 C         142.5952  140.6023  158.9271 C.ar    1  UNL1       -0.0204
     21 C         143.8052  140.2271  158.1239 C.ar    1  UNL1       -0.0042
     22 C         144.7427  141.2923  157.6378 C.ar    1  UNL1       -0.0003
     23 C         144.4701  142.7329  157.9548 C.ar    1  UNL1       -0.0000
     24 C         143.2601  143.1082  158.7580 C.ar    1  UNL1       -0.0003
     25 C         142.3227  142.0428  159.2441 C.ar    1  UNL1       -0.0042
     26 C         143.7044  138.7933  162.0525 C.3     1  UNL1        0.0508
     27 C         143.9166  139.5399  163.3361 C.3     1  UNL1        0.0784
     28 N         143.0711  139.2264  164.5348 N.am    1  UNL1       -0.3042
     29 C         141.8250  140.0177  164.8013 C.2     1  UNL1        0.2406
     30 O         141.4631  140.6228  164.4294 O.2     1  UNL1       -0.2733
     31 H         143.3341  138.5013  165.1466 H       1  UNL1        0.1494
     32 C         140.9795  139.7041  165.9999 C.3     1  UNL1        0.1529
     33 N         141.3710  140.2251  167.3510 N.am    1  UNL1       -0.2574
     34 C         140.6016  141.3532  167.9717 C.3     1  UNL1        0.0971
     35 C         140.9933  141.8741  169.3228 C.3     1  UNL1        0.0428
     36 C         142.1543  141.2669  170.0530 C.3     1  UNL1        0.0927
     37 N         142.9236  140.1387  169.4323 N.am    1  UNL1       -0.2887
     38 C         142.5321  139.6178  168.0813 C.2     1  UNL1        0.3043
     39 O         143.3015  138.4897  167.4606 O.2     1  UNL1       -0.2526
     40 H         143.6856  139.7402  169.9117 H       1  UNL1        0.1510
     41 C         139.7424  138.8697  165.8476 C.3     1  UNL1        0.0272
     42 C         138.4718  139.2804  166.5310 C.3     1  UNL1        0.0022
     43 C         139.7758  137.6245  165.0119 C.3     1  UNL1        0.0022
     44 C         144.9744  140.6001  163.4210 C.3     1  UNL1        0.0460
     45 C         144.5822  142.0445  163.5198 C.ar    1  UNL1       -0.0205
     46 C         144.2068  142.8061  162.2832 C.ar    1  UNL1       -0.0042
     47 C         143.8146  144.2505  162.3820 C.ar    1  UNL1       -0.0003
     48 C         143.7980  144.9334  163.7174 C.ar    1  UNL1       -0.0000
     49 C         144.1734  144.1720  164.9540 C.ar    1  UNL1       -0.0003
     50 C         144.5656  142.7275  164.8552 C.ar    1  UNL1       -0.0042
@<TRIPOS>BOND
     1    11    12    1
     2    12    13   ar
     3    13    14   ar
     4    14    15   ar
     5    15    16   ar
     6    16    17    1
     7    16    18   ar
     8    18    10    1
     9    10     9    1
    10     9     5    1
    11     5     6    2
    12     5     7   am
    13     7     4    1
    14     4    19    1
    15    19    20    1
    16    20    21   ar
    17    21    22   ar
    18    22    23   ar
    19    23    24   ar
    20    24    25   ar
    21     4     1    1
    22     1     2    1
    23     1    26    1
    24    27    26    1
    25    27    44    1
    26    44    45    1
    27    45    46   ar
    28    46    47   ar
    29    47    48   ar
    30    48    49   ar
    31    49    50   ar
    32    27    28    1
    33    28    29   am
    34    29    30    2
    35    29    32    1
    36    32    41    1
    37    41    42    1
    38    41    43    1
    39    32    33    1
    40    33    34    1
    41    34    35    1
    42    35    36    1
    43    36    37    1
    44    37    38   am
    45    38    39    2
    46    18    12   ar
    47    25    20   ar
    48    50    45   ar
    49    38    33   am
    50     7     8    1
    51     2     3    1
    52    28    31    1
    53    37    40    1
