@<TRIPOS>MOLECULE
*****
 38 41 0 0 0
SMALL
GASTEIGER

@<TRIPOS>ATOM
      1 N         142.0052  140.7851  165.8325 N.ar    1  UNL1       -0.2986
      2 C         140.9061  140.4717  166.8039 C.ar    1  UNL1        0.1245
      3 C         139.9276  139.5637  166.1197 C.ar    1  UNL1        0.1157
      4 C         140.4221  139.3159  164.7254 C.ar    1  UNL1        0.0967
      5 C         141.7061  140.0707  164.5479 C.ar    1  UNL1        0.1354
      6 C         142.4371  140.0101  163.2395 C.ar    1  UNL1        0.2819
      7 O         143.7211  140.7649  163.0619 O.2     1  UNL1       -0.2652
      8 N         141.8839  139.1946  162.1085 N.ar    1  UNL1       -0.2399
      9 C         140.6000  138.4398  162.2860 C.ar    1  UNL1        0.3343
     10 O         140.0468  137.6242  161.1550 O.2     1  UNL1       -0.2462
     11 N         139.8690  138.5004  163.5944 N.ar    1  UNL1       -0.2770
     12 C         138.5850  137.7456  163.7718 C.3     1  UNL1        0.1351
     13 N         140.8033  140.9775  168.2123 N.pl3   1  UNL1       -0.2926
     14 C         140.9683  140.0300  169.3634 C.3     1  UNL1        0.0922
     15 C         140.8656  140.5358  170.7719 C.3     1  UNL1        0.0229
     16 C         140.5979  141.9891  171.0292 C.3     1  UNL1        0.0190
     17 C         140.4329  142.9366  169.8781 C.3     1  UNL1        0.0709
     18 N         140.1652  144.3899  170.1354 N.3     1  UNL1       -0.3208
     19 C         140.5356  142.4308  168.4696 C.3     1  UNL1        0.1075
     20 H         140.0815  144.8828  169.2463 H       1  UNL1        0.1189
     21 H         140.9353  144.7874  170.6734 H       1  UNL1        0.1189
     22 C         138.6747  139.0021  166.7237 C.1     1  UNL1        0.1047
     23 N         137.4218  138.4406  167.3277 N.1     1  UNL1       -0.1907
     24 C         143.1947  141.6593  166.0989 C.3     1  UNL1        0.1842
     25 C         143.8304  145.3949  163.6718 C.3     1  UNL1        0.0900
     26 C         143.6185  144.1497  164.4809 C.1     1  UNL1       -0.0881
     27 C         143.4066  142.9044  165.2899 C.1     1  UNL1       -0.0656
     28 C         142.6149  139.1339  160.8000 C.3     1  UNL1        0.1826
     29 C         142.3312  140.1509  159.7345 C.2     1  UNL1        0.1961
     30 O         142.5880  139.8198  158.2942 O.2     1  UNL1       -0.2893
     31 C         141.7907  141.4990  160.1094 C.ar    1  UNL1        0.0397
     32 C         142.7182  142.6718  160.2300 C.ar    1  UNL1        0.0031
     33 C         142.1777  144.0199  160.6049 C.ar    1  UNL1        0.0032
     34 C         140.7098  144.1952  160.8592 C.ar    1  UNL1        0.0369
     35 C         139.7824  143.0224  160.7385 C.ar    1  UNL1        0.1388
     36 C         140.3228  141.6743  160.3637 C.ar    1  UNL1        0.0398
     37 O         138.3145  143.1978  160.9928 O.3     1  UNL1       -0.4714
     38 C         137.7975  143.2455  162.4001 C.3     1  UNL1        0.2525
@<TRIPOS>BOND
     1    25    26    1
     2    26    27    3
     3    27    24    1
     4    24     1    1
     5     1     2   ar
     6     2    13    1
     7    13    14    1
     8    14    15    1
     9    15    16    1
    10    16    17    1
    11    17    18    1
    12    17    19    1
    13     2     3   ar
    14     3    22    1
    15    22    23    3
    16     3     4   ar
    17     4     5   ar
    18     5     6   ar
    19     6     7    2
    20     6     8   ar
    21     8    28    1
    22    28    29    1
    23    29    30    2
    24    29    31    1
    25    31    32   ar
    26    32    33   ar
    27    33    34   ar
    28    34    35   ar
    29    35    37    1
    30    37    38    1
    31    35    36   ar
    32     8     9   ar
    33     9    10    2
    34     9    11   ar
    35    11    12    1
    36     5     1   ar
    37    36    31   ar
    38    19    13    1
    39    11     4   ar
    40    18    20    1
    41    18    21    1
@<TRIPOS>MOLECULE
*****
 38 41 0 0 0
SMALL
GASTEIGER

@<TRIPOS>ATOM
      1 N         139.5070  140.3817  160.4842 N.ar    1  UNL1       -0.2986
      2 C         140.3187  140.4225  159.2235 C.ar    1  UNL1        0.1245
      3 C         140.7177  141.8469  158.9748 C.ar    1  UNL1        0.1157
      4 C         140.1525  142.6865  160.0818 C.ar    1  UNL1        0.0967
      5 C         139.4043  141.7810  161.0147 C.ar    1  UNL1        0.1354
      6 C         138.7262  142.3476  162.2267 C.ar    1  UNL1        0.2819
      7 O         137.9780  141.4421  163.1597 O.2     1  UNL1       -0.2652
      8 N         138.7963  143.8198  162.5059 N.ar    1  UNL1       -0.2399
      9 C         139.5444  144.7253  161.5731 C.ar    1  UNL1        0.3343
     10 O         139.6145  146.1975  161.8522 O.2     1  UNL1       -0.2462
     11 N         140.2226  144.1587  160.3610 N.ar    1  UNL1       -0.2770
     12 C         140.9708  145.0642  159.4281 C.3     1  UNL1        0.1351
     13 N         140.6698  139.2454  158.3625 N.pl3   1  UNL1       -0.2926
     14 C         142.0858  138.7538  158.3053 C.3     1  UNL1        0.0922
     15 C         142.4370  137.5767  157.4444 C.3     1  UNL1        0.0229
     16 C         141.3721  136.8913  156.6406 C.3     1  UNL1        0.0190
     17 C         139.9561  137.3828  156.6977 C.3     1  UNL1        0.0709
     18 N         138.8912  136.6974  155.8939 N.3     1  UNL1       -0.3208
     19 C         139.6049  138.5599  157.5587 C.3     1  UNL1        0.1075
     20 H         137.9958  137.1596  156.0515 H       1  UNL1        0.1189
     21 H         138.8248  135.7207  156.1804 H       1  UNL1        0.1189
     22 C         141.5377  142.3443  157.8215 C.1     1  UNL1        0.1047
     23 N         142.3578  142.8417  156.6682 N.1     1  UNL1       -0.1907
     24 C         138.9039  139.1568  161.1054 C.3     1  UNL1        0.1842
     25 C         141.0809  137.0011  164.4014 C.3     1  UNL1        0.0900
     26 C         140.3553  137.7197  163.3027 C.1     1  UNL1       -0.0881
     27 C         139.6296  138.4382  162.2040 C.1     1  UNL1       -0.0656
     28 C         138.1181  144.3865  163.7180 C.3     1  UNL1        0.1826
     29 C         138.8761  144.5266  165.0048 C.2     1  UNL1        0.1961
     30 O         138.3902  145.4732  166.0621 O.2     1  UNL1       -0.2893
     31 C         140.1199  143.7202  165.2341 C.ar    1  UNL1        0.0397
     32 C         140.0788  142.5159  166.1276 C.ar    1  UNL1        0.0031
     33 C         141.3226  141.7095  166.3570 C.ar    1  UNL1        0.0032
     34 C         142.6074  142.1074  165.6930 C.ar    1  UNL1        0.0369
     35 C         142.6485  143.3116  164.7996 C.ar    1  UNL1        0.1388
     36 C         141.4047  144.1180  164.5701 C.ar    1  UNL1        0.0398
     37 O         143.9334  143.7093  164.1356 O.3     1  UNL1       -0.4714
     38 C         143.9071  144.5517  162.8947 C.3     1  UNL1        0.2525
@<TRIPOS>BOND
     1    25    26    1
     2    26    27    3
     3    27    24    1
     4    24     1    1
     5     1     2   ar
     6     2    13    1
     7    13    14    1
     8    14    15    1
     9    15    16    1
    10    16    17    1
    11    17    18    1
    12    17    19    1
    13     2     3   ar
    14     3    22    1
    15    22    23    3
    16     3     4   ar
    17     4     5   ar
    18     5     6   ar
    19     6     7    2
    20     6     8   ar
    21     8    28    1
    22    28    29    1
    23    29    30    2
    24    29    31    1
    25    31    32   ar
    26    32    33   ar
    27    33    34   ar
    28    34    35   ar
    29    35    37    1
    30    37    38    1
    31    35    36   ar
    32     8     9   ar
    33     9    10    2
    34     9    11   ar
    35    11    12    1
    36     5     1   ar
    37    36    31   ar
    38    19    13    1
    39    11     4   ar
    40    18    20    1
    41    18    21    1
@<TRIPOS>MOLECULE
*****
 38 41 0 0 0
SMALL
GASTEIGER

@<TRIPOS>ATOM
      1 N         140.5447  140.2484  164.7970 N.ar    1  UNL1       -0.2986
      2 C         141.9270  140.1871  165.3762 C.ar    1  UNL1        0.1245
      3 C         142.8628  139.7326  164.2955 C.ar    1  UNL1        0.1157
      4 C         142.0588  139.5131  163.0484 C.ar    1  UNL1        0.0967
      5 C         140.6262  139.8319  163.3583 C.ar    1  UNL1        0.1354
      6 C         139.5809  139.7017  162.2904 C.ar    1  UNL1        0.2819
      7 O         138.1482  140.0204  162.6003 O.2     1  UNL1       -0.2652
      8 N         139.9683  139.2527  160.9126 N.ar    1  UNL1       -0.2399
      9 C         141.4008  138.9340  160.6027 C.ar    1  UNL1        0.3343
     10 O         141.7882  138.4850  159.2248 O.2     1  UNL1       -0.2462
     11 N         142.4461  139.0642  161.6705 N.ar    1  UNL1       -0.2770
     12 C         143.8787  138.7455  161.3606 C.3     1  UNL1        0.1351
     13 N         142.3069  140.5214  166.7883 N.pl3   1  UNL1       -0.2926
     14 C         142.6558  141.9329  167.1569 C.3     1  UNL1        0.0922
     15 C         143.0357  142.2674  168.5690 C.3     1  UNL1        0.0229
     16 C         143.0667  141.1902  169.6124 C.3     1  UNL1        0.0190
     17 C         142.7179  139.7787  169.2438 C.3     1  UNL1        0.0709
     18 N         142.7490  138.7016  170.2872 N.3     1  UNL1       -0.3208
     19 C         142.3380  139.4443  167.8317 C.3     1  UNL1        0.1075
     20 H         142.4862  137.8112  169.8646 H       1  UNL1        0.1189
     21 H         142.0917  138.9312  171.0326 H       1  UNL1        0.1189
     22 C         144.3426  139.5328  164.4372 C.1     1  UNL1        0.1047
     23 N         145.8225  139.3330  164.5788 N.1     1  UNL1       -0.1907
     24 C         139.2996  140.6549  165.5281 C.3     1  UNL1        0.1842
     25 C         136.8532  137.5629  167.6970 C.3     1  UNL1        0.0900
     26 C         137.6686  138.5935  166.9741 C.1     1  UNL1       -0.0881
     27 C         138.4841  139.6242  166.2511 C.1     1  UNL1       -0.0656
     28 C         138.9229  139.1225  159.8446 C.3     1  UNL1        0.1826
     29 C         138.5289  140.3194  159.0309 C.2     1  UNL1        0.1961
     30 O         137.3503  140.2427  158.1062 O.2     1  UNL1       -0.2893
     31 C         139.3135  141.5930  159.1418 C.ar    1  UNL1        0.0397
     32 C         140.5243  141.8053  158.2820 C.ar    1  UNL1        0.0031
     33 C         141.3089  143.0789  158.3930 C.ar    1  UNL1        0.0032
     34 C         140.8828  144.1402  159.3637 C.ar    1  UNL1        0.0369
     35 C         139.6721  143.9278  160.2234 C.ar    1  UNL1        0.1388
     36 C         138.8875  142.6543  160.1125 C.ar    1  UNL1        0.0398
     37 O         139.2461  144.9891  161.1941 O.3     1  UNL1       -0.4714
     38 C         140.2784  145.8080  161.9110 C.3     1  UNL1        0.2525
@<TRIPOS>BOND
     1    25    26    1
     2    26    27    3
     3    27    24    1
     4    24     1    1
     5     1     2   ar
     6     2    13    1
     7    13    14    1
     8    14    15    1
     9    15    16    1
    10    16    17    1
    11    17    18    1
    12    17    19    1
    13     2     3   ar
    14     3    22    1
    15    22    23    3
    16     3     4   ar
    17     4     5   ar
    18     5     6   ar
    19     6     7    2
    20     6     8   ar
    21     8    28    1
    22    28    29    1
    23    29    30    2
    24    29    31    1
    25    31    32   ar
    26    32    33   ar
    27    33    34   ar
    28    34    35   ar
    29    35    37    1
    30    37    38    1
    31    35    36   ar
    32     8     9   ar
    33     9    10    2
    34     9    11   ar
    35    11    12    1
    36     5     1   ar
    37    36    31   ar
    38    19    13    1
    39    11     4   ar
    40    18    20    1
    41    18    21    1
@<TRIPOS>MOLECULE
*****
 38 41 0 0 0
SMALL
GASTEIGER

@<TRIPOS>ATOM
      1 N         141.5822  140.1945  165.5029 N.ar    1  UNL1       -0.2986
      2 C         142.3542  141.2267  166.2700 C.ar    1  UNL1        0.1245
      3 C         143.2887  141.9102  165.3163 C.ar    1  UNL1        0.1157
      4 C         143.0943  141.3004  163.9597 C.ar    1  UNL1        0.0967
      5 C         142.0396  140.2400  164.0750 C.ar    1  UNL1        0.1354
      6 C         141.6320  139.4529  162.8650 C.ar    1  UNL1        0.2819
      7 O         140.5772  138.3925  162.9802 O.2     1  UNL1       -0.2652
      8 N         142.2791  139.7263  161.5395 N.ar    1  UNL1       -0.2399
      9 C         143.3337  140.7865  161.4243 C.ar    1  UNL1        0.3343
     10 O         143.9808  141.0599  160.0989 O.2     1  UNL1       -0.2462
     11 N         143.7413  141.5736  162.6343 N.ar    1  UNL1       -0.2770
     12 C         144.7960  142.6340  162.5190 C.3     1  UNL1        0.1351
     13 N         142.2160  141.5233  167.7339 N.pl3   1  UNL1       -0.2926
     14 C         141.4351  142.7216  168.1858 C.3     1  UNL1        0.0922
     15 C         141.2968  143.0184  169.6497 C.3     1  UNL1        0.0229
     16 C         141.9395  142.1168  170.6616 C.3     1  UNL1        0.0190
     17 C         142.7204  140.9185  170.2097 C.3     1  UNL1        0.0709
     18 N         143.3631  140.0169  171.2216 N.3     1  UNL1       -0.3208
     19 C         142.8587  140.6217  168.7458 C.3     1  UNL1        0.1075
     20 H         143.8490  139.2592  170.7419 H       1  UNL1        0.1189
     21 H         142.6462  139.6273  171.8338 H       1  UNL1        0.1189
     22 C         144.2491  143.0103  165.6591 C.1     1  UNL1        0.1047
     23 N         145.2094  144.1104  166.0018 N.1     1  UNL1       -0.1907
     24 C         140.5364  139.2777  166.0648 C.3     1  UNL1        0.1842
     25 C         138.5309  140.2763  169.9675 C.3     1  UNL1        0.0900
     26 C         139.1994  139.9435  168.6666 C.1     1  UNL1       -0.0881
     27 C         139.8679  139.6105  167.3657 C.1     1  UNL1       -0.0656
     28 C         141.8714  138.9391  160.3294 C.3     1  UNL1        0.1826
     29 C         140.6851  139.3702  159.5189 C.2     1  UNL1        0.1961
     30 O         139.8662  138.3490  158.7865 O.2     1  UNL1       -0.2893
     31 C         140.3179  140.8225  159.4409 C.ar    1  UNL1        0.0397
     32 C         140.9448  141.6996  158.3979 C.ar    1  UNL1        0.0031
     33 C         140.5775  143.1518  158.3199 C.ar    1  UNL1        0.0032
     34 C         139.5834  143.7269  159.2848 C.ar    1  UNL1        0.0369
     35 C         138.9566  142.8498  160.3278 C.ar    1  UNL1        0.1388
     36 C         139.3238  141.3976  160.4059 C.ar    1  UNL1        0.0398
     37 O         137.9626  143.4250  161.2927 O.3     1  UNL1       -0.4714
     38 C         137.7591  142.7819  162.6325 C.3     1  UNL1        0.2525
@<TRIPOS>BOND
     1    25    26    1
     2    26    27    3
     3    27    24    1
     4    24     1    1
     5     1     2   ar
     6     2    13    1
     7    13    14    1
     8    14    15    1
     9    15    16    1
    10    16    17    1
    11    17    18    1
    12    17    19    1
    13     2     3   ar
    14     3    22    1
    15    22    23    3
    16     3     4   ar
    17     4     5   ar
    18     5     6   ar
    19     6     7    2
    20     6     8   ar
    21     8    28    1
    22    28    29    1
    23    29    30    2
    24    29    31    1
    25    31    32   ar
    26    32    33   ar
    27    33    34   ar
    28    34    35   ar
    29    35    37    1
    30    37    38    1
    31    35    36   ar
    32     8     9   ar
    33     9    10    2
    34     9    11   ar
    35    11    12    1
    36     5     1   ar
    37    36    31   ar
    38    19    13    1
    39    11     4   ar
    40    18    20    1
    41    18    21    1
@<TRIPOS>MOLECULE
*****
 38 41 0 0 0
SMALL
GASTEIGER

@<TRIPOS>ATOM
      1 N         140.3871  142.2436  165.0891 N.ar    1  UNL1       -0.2986
      2 C         141.5216  142.5692  166.0148 C.ar    1  UNL1        0.1245
      3 C         142.6692  143.0645  165.1853 C.ar    1  UNL1        0.1157
      4 C         142.2439  143.0450  163.7470 C.ar    1  UNL1        0.0967
      5 C         140.8335  142.5377  163.6876 C.ar    1  UNL1        0.1354
      6 C         140.1379  142.4090  162.3649 C.ar    1  UNL1        0.2819
      7 O         138.7275  141.9017  162.3053 O.2     1  UNL1       -0.2652
      8 N         140.8527  142.7877  161.1016 N.ar    1  UNL1       -0.2399
      9 C         142.2630  143.2949  161.1611 C.ar    1  UNL1        0.3343
     10 O         142.9778  143.6736  159.8978 O.2     1  UNL1       -0.2462
     11 N         142.9586  143.4236  162.4838 N.ar    1  UNL1       -0.2770
     12 C         144.3690  143.9309  162.5433 C.3     1  UNL1        0.1351
     13 N         141.5106  142.4249  167.5078 N.pl3   1  UNL1       -0.2926
     14 C         140.4746  143.1407  168.3228 C.3     1  UNL1        0.0922
     15 C         140.4635  142.9964  169.8159 C.3     1  UNL1        0.0229
     16 C         141.4885  142.1364  170.4938 C.3     1  UNL1        0.0190
     17 C         142.5245  141.4206  169.6788 C.3     1  UNL1        0.0709
     18 N         143.5495  140.5605  170.3567 N.3     1  UNL1       -0.3208
     19 C         142.5356  141.5648  168.1857 C.3     1  UNL1        0.1075
     20 H         144.1694  140.1540  169.6561 H       1  UNL1        0.1189
     21 H         143.0810  139.8141  170.8703 H       1  UNL1        0.1189
     22 C         144.0071  143.5023  165.7033 C.1     1  UNL1        0.1047
     23 N         145.3450  143.9402  166.2213 N.1     1  UNL1       -0.1907
     24 C         139.0424  141.7166  165.4939 C.3     1  UNL1        0.1842
     25 C         138.3559  137.2779  165.7716 C.3     1  UNL1        0.0900
     26 C         138.5848  138.7574  165.6791 C.1     1  UNL1       -0.0881
     27 C         138.8135  140.2371  165.5865 C.1     1  UNL1       -0.0656
     28 C         140.1571  142.6590  159.7788 C.3     1  UNL1        0.1826
     29 C         140.0297  141.3145  159.1261 C.2     1  UNL1        0.1961
     30 O         138.9664  141.0794  158.0945 O.2     1  UNL1       -0.2893
     31 C         140.9656  140.2052  159.5049 C.ar    1  UNL1        0.0397
     32 C         142.2710  140.0460  158.7833 C.ar    1  UNL1        0.0031
     33 C         143.2069  138.9367  159.1622 C.ar    1  UNL1        0.0032
     34 C         142.8374  137.9867  160.2626 C.ar    1  UNL1        0.0369
     35 C         141.5321  138.1459  160.9841 C.ar    1  UNL1        0.1388
     36 C         140.5961  139.2551  160.6053 C.ar    1  UNL1        0.0398
     37 O         141.1627  137.1957  162.0845 O.3     1  UNL1       -0.4714
     38 C         141.4147  137.5702  163.5149 C.3     1  UNL1        0.2525
@<TRIPOS>BOND
     1    25    26    1
     2    26    27    3
     3    27    24    1
     4    24     1    1
     5     1     2   ar
     6     2    13    1
     7    13    14    1
     8    14    15    1
     9    15    16    1
    10    16    17    1
    11    17    18    1
    12    17    19    1
    13     2     3   ar
    14     3    22    1
    15    22    23    3
    16     3     4   ar
    17     4     5   ar
    18     5     6   ar
    19     6     7    2
    20     6     8   ar
    21     8    28    1
    22    28    29    1
    23    29    30    2
    24    29    31    1
    25    31    32   ar
    26    32    33   ar
    27    33    34   ar
    28    34    35   ar
    29    35    37    1
    30    37    38    1
    31    35    36   ar
    32     8     9   ar
    33     9    10    2
    34     9    11   ar
    35    11    12    1
    36     5     1   ar
    37    36    31   ar
    38    19    13    1
    39    11     4   ar
    40    18    20    1
    41    18    21    1
@<TRIPOS>MOLECULE
*****
 38 41 0 0 0
SMALL
GASTEIGER

@<TRIPOS>ATOM
      1 N         139.2593  141.8731  160.9772 N.ar    1  UNL1       -0.2986
      2 C         140.1943  141.9769  159.8088 C.ar    1  UNL1        0.1245
      3 C         141.0710  140.7598  159.8071 C.ar    1  UNL1        0.1157
      4 C         140.6779  139.9037  160.9744 C.ar    1  UNL1        0.0967
      5 C         139.5582  140.5918  161.6975 C.ar    1  UNL1        0.1354
      6 C         138.9554  139.9627  162.9185 C.ar    1  UNL1        0.2819
      7 O         137.8357  140.6507  163.6417 O.2     1  UNL1       -0.2652
      8 N         139.4724  138.6454  163.4163 N.ar    1  UNL1       -0.2399
      9 C         140.5920  137.9574  162.6932 C.ar    1  UNL1        0.3343
     10 O         141.1089  136.6402  163.1911 O.2     1  UNL1       -0.2462
     11 N         141.1948  138.5865  161.4722 N.ar    1  UNL1       -0.2770
     12 C         142.3144  137.8985  160.7491 C.3     1  UNL1        0.1351
     13 N         140.2439  143.1006  158.8164 N.pl3   1  UNL1       -0.2926
     14 C         139.1863  143.2144  157.7589 C.3     1  UNL1        0.0922
     15 C         139.2358  144.3381  156.7664 C.3     1  UNL1        0.0229
     16 C         140.3430  145.3480  156.8315 C.3     1  UNL1        0.0190
     17 C         141.4007  145.2341  157.8891 C.3     1  UNL1        0.0709
     18 N         142.5079  146.2439  157.9542 N.3     1  UNL1       -0.3208
     19 C         141.3511  144.1104  158.8816 C.3     1  UNL1        0.1075
     20 H         143.1320  146.0148  158.7278 H       1  UNL1        0.1189
     21 H         142.1127  147.1729  158.1000 H       1  UNL1        0.1189
     22 C         142.1512  140.4527  158.8127 C.1     1  UNL1        0.1047
     23 N         143.2314  140.1456  157.8182 N.1     1  UNL1       -0.1907
     24 C         138.2098  142.8747  161.3582 C.3     1  UNL1        0.1842
     25 C         138.4186  144.9451  165.3482 C.3     1  UNL1        0.0900
     26 C         138.3490  144.2550  164.0182 C.1     1  UNL1       -0.0881
     27 C         138.2794  143.5648  162.6882 C.1     1  UNL1       -0.0656
     28 C         138.8695  138.0163  164.6374 C.3     1  UNL1        0.1826
     29 C         138.8008  138.7874  165.9222 C.2     1  UNL1        0.1961
     30 O         137.5413  138.7766  166.7369 O.2     1  UNL1       -0.2893
     31 C         139.9915  139.5693  166.3922 C.ar    1  UNL1        0.0397
     32 C         141.3764  139.0525  166.1371 C.ar    1  UNL1        0.0031
     33 C         142.5670  139.8344  166.6071 C.ar    1  UNL1        0.0032
     34 C         142.3728  141.1331  167.3321 C.ar    1  UNL1        0.0369
     35 C         140.9879  141.6499  167.5872 C.ar    1  UNL1        0.1388
     36 C         139.7972  140.8680  167.1172 C.ar    1  UNL1        0.0398
     37 O         140.7938  142.9486  168.3123 O.3     1  UNL1       -0.4714
     38 C         140.2434  142.9536  169.7076 C.3     1  UNL1        0.2525
@<TRIPOS>BOND
     1    25    26    1
     2    26    27    3
     3    27    24    1
     4    24     1    1
     5     1     2   ar
     6     2    13    1
     7    13    14    1
     8    14    15    1
     9    15    16    1
    10    16    17    1
    11    17    18    1
    12    17    19    1
    13     2     3   ar
    14     3    22    1
    15    22    23    3
    16     3     4   ar
    17     4     5   ar
    18     5     6   ar
    19     6     7    2
    20     6     8   ar
    21     8    28    1
    22    28    29    1
    23    29    30    2
    24    29    31    1
    25    31    32   ar
    26    32    33   ar
    27    33    34   ar
    28    34    35   ar
    29    35    37    1
    30    37    38    1
    31    35    36   ar
    32     8     9   ar
    33     9    10    2
    34     9    11   ar
    35    11    12    1
    36     5     1   ar
    37    36    31   ar
    38    19    13    1
    39    11     4   ar
    40    18    20    1
    41    18    21    1
@<TRIPOS>MOLECULE
*****
 38 41 0 0 0
SMALL
GASTEIGER

@<TRIPOS>ATOM
      1 N         142.0614  141.2657  165.2661 N.ar    1  UNL1       -0.2986
      2 C         140.9120  141.9347  165.9599 C.ar    1  UNL1        0.1245
      3 C         140.4698  143.0917  165.1139 C.ar    1  UNL1        0.1157
      4 C         141.3459  143.1378  163.8972 C.ar    1  UNL1        0.0967
      5 C         142.3295  142.0092  163.9913 C.ar    1  UNL1        0.1354
      6 C         143.3423  141.8045  162.9040 C.ar    1  UNL1        0.2819
      7 O         144.3260  140.6759  162.9980 O.2     1  UNL1       -0.2652
      8 N         143.3714  142.7283  161.7225 N.ar    1  UNL1       -0.2399
      9 C         142.3879  143.8568  161.6284 C.ar    1  UNL1        0.3343
     10 O         142.4170  144.7807  160.4470 O.2     1  UNL1       -0.2462
     11 N         141.3751  144.0616  162.7158 N.ar    1  UNL1       -0.2770
     12 C         140.3914  145.1901  162.6217 C.3     1  UNL1        0.1351
     13 N         140.3104  141.5196  167.2698 N.pl3   1  UNL1       -0.2926
     14 C         139.4783  140.2743  167.3518 C.3     1  UNL1        0.0922
     15 C         138.8767  139.8591  168.6617 C.3     1  UNL1        0.0229
     16 C         139.1072  140.6893  169.8895 C.3     1  UNL1        0.0190
     17 C         139.9393  141.9346  169.8075 C.3     1  UNL1        0.0709
     18 N         140.1699  142.7647  171.0353 N.3     1  UNL1       -0.3208
     19 C         140.5410  142.3498  168.4976 C.3     1  UNL1        0.1075
     20 H         140.7528  143.5675  170.7984 H       1  UNL1        0.1189
     21 H         140.6394  142.2008  171.7438 H       1  UNL1        0.1189
     22 C         139.3484  144.0367  165.4292 C.1     1  UNL1        0.1047
     23 N         138.2270  144.9817  165.7445 N.1     1  UNL1       -0.1907
     24 C         142.8110  140.0641  165.7603 C.3     1  UNL1        0.1842
     25 C         142.6259  138.9293  170.1110 C.3     1  UNL1        0.0900
     26 C         142.6876  139.3075  168.6608 C.1     1  UNL1       -0.0881
     27 C         142.7493  139.6858  167.2105 C.1     1  UNL1       -0.0656
     28 C         144.3843  142.5235  160.6351 C.3     1  UNL1        0.1826
     29 C         144.0091  141.7715  159.3926 C.2     1  UNL1        0.1961
     30 O         144.6763  142.0966  158.0891 O.2     1  UNL1       -0.2893
     31 C         142.9668  140.6946  159.4538 C.ar    1  UNL1        0.0397
     32 C         143.3583  139.2914  159.8116 C.ar    1  UNL1        0.0031
     33 C         142.3160  138.2145  159.8727 C.ar    1  UNL1        0.0032
     34 C         140.8823  138.5407  159.5761 C.ar    1  UNL1        0.0369
     35 C         140.4909  139.9438  159.2183 C.ar    1  UNL1        0.1388
     36 C         141.5331  141.0208  159.1571 C.ar    1  UNL1        0.0398
     37 O         139.0571  140.2699  158.9216 O.3     1  UNL1       -0.4714
     38 C         138.7211  141.4031  157.9981 C.3     1  UNL1        0.2525
@<TRIPOS>BOND
     1    25    26    1
     2    26    27    3
     3    27    24    1
     4    24     1    1
     5     1     2   ar
     6     2    13    1
     7    13    14    1
     8    14    15    1
     9    15    16    1
    10    16    17    1
    11    17    18    1
    12    17    19    1
    13     2     3   ar
    14     3    22    1
    15    22    23    3
    16     3     4   ar
    17     4     5   ar
    18     5     6   ar
    19     6     7    2
    20     6     8   ar
    21     8    28    1
    22    28    29    1
    23    29    30    2
    24    29    31    1
    25    31    32   ar
    26    32    33   ar
    27    33    34   ar
    28    34    35   ar
    29    35    37    1
    30    37    38    1
    31    35    36   ar
    32     8     9   ar
    33     9    10    2
    34     9    11   ar
    35    11    12    1
    36     5     1   ar
    37    36    31   ar
    38    19    13    1
    39    11     4   ar
    40    18    20    1
    41    18    21    1
@<TRIPOS>MOLECULE
*****
 38 41 0 0 0
SMALL
GASTEIGER

@<TRIPOS>ATOM
      1 N         142.1084  141.1279  165.2070 N.ar    1  UNL1       -0.2986
      2 C         140.9993  141.8605  165.9021 C.ar    1  UNL1        0.1245
      3 C         140.5901  143.0136  165.0344 C.ar    1  UNL1        0.1157
      4 C         141.4463  142.9936  163.8029 C.ar    1  UNL1        0.0967
      5 C         142.3847  141.8282  163.9096 C.ar    1  UNL1        0.1354
      6 C         143.3694  141.5552  162.8116 C.ar    1  UNL1        0.2819
      7 O         144.3078  140.3898  162.9182 O.2     1  UNL1       -0.2652
      8 N         143.4158  142.4477  161.6068 N.ar    1  UNL1       -0.2399
      9 C         142.4776  143.6131  161.5001 C.ar    1  UNL1        0.3343
     10 O         142.5240  144.5056  160.2954 O.2     1  UNL1       -0.2462
     11 N         141.4928  143.8860  162.5981 N.ar    1  UNL1       -0.2770
     12 C         140.5545  145.0514  162.4914 C.3     1  UNL1        0.1351
     13 N         140.4040  141.5029  167.2316 N.pl3   1  UNL1       -0.2926
     14 C         139.5041  140.3090  167.3537 C.3     1  UNL1        0.0922
     15 C         138.9087  139.9513  168.6832 C.3     1  UNL1        0.0229
     16 C         139.2131  140.7875  169.8907 C.3     1  UNL1        0.0190
     17 C         140.1130  141.9814  169.7686 C.3     1  UNL1        0.0709
     18 N         140.4175  142.8176  170.9761 N.3     1  UNL1       -0.3208
     19 C         140.7084  142.3391  168.4391 C.3     1  UNL1        0.1075
     20 H         141.0399  143.5814  170.7125 H       1  UNL1        0.1189
     21 H         140.8695  142.2397  171.6847 H       1  UNL1        0.1189
     22 C         139.5138  144.0114  165.3438 C.1     1  UNL1        0.1047
     23 N         138.4374  145.0092  165.6532 N.1     1  UNL1       -0.1907
     24 C         142.8169  139.9090  165.7193 C.3     1  UNL1        0.1842
     25 C         142.6420  138.8780  170.0961 C.3     1  UNL1        0.0900
     26 C         142.7003  139.2217  168.6372 C.1     1  UNL1       -0.0881
     27 C         142.7586  139.5654  167.1782 C.1     1  UNL1       -0.0656
     28 C         144.4007  142.1748  160.5087 C.3     1  UNL1        0.1826
     29 C         144.0161  141.2917  159.3588 C.2     1  UNL1        0.1961
     30 O         143.6028  139.8716  159.6093 O.2     1  UNL1       -0.2893
     31 C         144.0449  141.8286  157.9585 C.ar    1  UNL1        0.0397
     32 C         142.7716  142.2650  157.2963 C.ar    1  UNL1        0.0031
     33 C         142.8003  142.8020  155.8961 C.ar    1  UNL1        0.0032
     34 C         144.1023  142.9026  155.1580 C.ar    1  UNL1        0.0369
     35 C         145.3755  142.4662  155.8201 C.ar    1  UNL1        0.1388
     36 C         145.3468  141.9292  157.2204 C.ar    1  UNL1        0.0398
     37 O         146.6774  142.5668  155.0820 O.3     1  UNL1       -0.4714
     38 C         147.9213  141.9695  155.6701 C.3     1  UNL1        0.2525
@<TRIPOS>BOND
     1    25    26    1
     2    26    27    3
     3    27    24    1
     4    24     1    1
     5     1     2   ar
     6     2    13    1
     7    13    14    1
     8    14    15    1
     9    15    16    1
    10    16    17    1
    11    17    18    1
    12    17    19    1
    13     2     3   ar
    14     3    22    1
    15    22    23    3
    16     3     4   ar
    17     4     5   ar
    18     5     6   ar
    19     6     7    2
    20     6     8   ar
    21     8    28    1
    22    28    29    1
    23    29    30    2
    24    29    31    1
    25    31    32   ar
    26    32    33   ar
    27    33    34   ar
    28    34    35   ar
    29    35    37    1
    30    37    38    1
    31    35    36   ar
    32     8     9   ar
    33     9    10    2
    34     9    11   ar
    35    11    12    1
    36     5     1   ar
    37    36    31   ar
    38    19    13    1
    39    11     4   ar
    40    18    20    1
    41    18    21    1
@<TRIPOS>MOLECULE
*****
 38 41 0 0 0
SMALL
GASTEIGER

@<TRIPOS>ATOM
      1 N         142.3502  140.1945  164.6987 N.ar    1  UNL1       -0.2986
      2 C         142.5090  141.5891  165.2276 C.ar    1  UNL1        0.1245
      3 C         142.9976  142.4573  164.1062 C.ar    1  UNL1        0.1157
      4 C         143.1408  141.5992  162.8842 C.ar    1  UNL1        0.0967
      5 C         142.7406  140.2007  163.2505 C.ar    1  UNL1        0.1354
      6 C         142.7835  139.1136  162.2178 C.ar    1  UNL1        0.2819
      7 O         142.3833  137.7151  162.5840 O.2     1  UNL1       -0.2652
      8 N         143.2265  139.4251  160.8190 N.ar    1  UNL1       -0.2399
      9 C         143.6267  140.8235  160.4528 C.ar    1  UNL1        0.3343
     10 O         144.0697  141.1349  159.0539 O.2     1  UNL1       -0.2462
     11 N         143.5838  141.9106  161.4854 N.ar    1  UNL1       -0.2770
     12 C         143.9840  143.3091  161.1192 C.3     1  UNL1        0.1351
     13 N         142.2285  142.0370  166.6314 N.pl3   1  UNL1       -0.2926
     14 C         140.8343  142.4179  167.0327 C.3     1  UNL1        0.0922
     15 C         140.5537  142.8658  168.4365 C.3     1  UNL1        0.0229
     16 C         141.6674  142.9328  169.4391 C.3     1  UNL1        0.0190
     17 C         143.0616  142.5519  169.0378 C.3     1  UNL1        0.0709
     18 N         144.1753  142.6189  170.0404 N.3     1  UNL1       -0.3208
     19 C         143.3422  142.1040  167.6340 C.3     1  UNL1        0.1075
     20 H         145.0476  142.3273  169.5995 H       1  UNL1        0.1189
     21 H         143.9660  141.9990  170.8229 H       1  UNL1        0.1189
     22 C         143.2915  143.9258  164.1918 C.1     1  UNL1        0.1047
     23 N         143.5854  145.3942  164.2773 N.1     1  UNL1       -0.1907
     24 C         141.8829  139.0028  165.4808 C.3     1  UNL1        0.1842
     25 C         137.6163  138.7697  166.8919 C.3     1  UNL1        0.0900
     26 C         139.0385  138.8474  166.4216 C.1     1  UNL1       -0.0881
     27 C         140.4607  138.9251  165.9512 C.1     1  UNL1       -0.0656
     28 C         143.2694  138.3379  159.7863 C.3     1  UNL1        0.1826
     29 C         142.1266  138.1664  158.8300 C.2     1  UNL1        0.1961
     30 O         142.2291  137.1750  157.7089 O.2     1  UNL1       -0.2893
     31 C         140.8813  138.9861  158.9948 C.ar    1  UNL1        0.0397
     32 C         140.6364  140.1660  158.1014 C.ar    1  UNL1        0.0031
     33 C         139.3911  140.9857  158.2662 C.ar    1  UNL1        0.0032
     34 C         138.3907  140.6257  159.3243 C.ar    1  UNL1        0.0369
     35 C         138.6356  139.4458  160.2176 C.ar    1  UNL1        0.1388
     36 C         139.8809  138.6260  160.0529 C.ar    1  UNL1        0.0398
     37 O         137.6352  139.0858  161.2757 O.3     1  UNL1       -0.4714
     38 C         138.0797  138.9002  162.6962 C.3     1  UNL1        0.2525
@<TRIPOS>BOND
     1    25    26    1
     2    26    27    3
     3    27    24    1
     4    24     1    1
     5     1     2   ar
     6     2    13    1
     7    13    14    1
     8    14    15    1
     9    15    16    1
    10    16    17    1
    11    17    18    1
    12    17    19    1
    13     2     3   ar
    14     3    22    1
    15    22    23    3
    16     3     4   ar
    17     4     5   ar
    18     5     6   ar
    19     6     7    2
    20     6     8   ar
    21     8    28    1
    22    28    29    1
    23    29    30    2
    24    29    31    1
    25    31    32   ar
    26    32    33   ar
    27    33    34   ar
    28    34    35   ar
    29    35    37    1
    30    37    38    1
    31    35    36   ar
    32     8     9   ar
    33     9    10    2
    34     9    11   ar
    35    11    12    1
    36     5     1   ar
    37    36    31   ar
    38    19    13    1
    39    11     4   ar
    40    18    20    1
    41    18    21    1
