@<TRIPOS>MOLECULE
*****
 38 41 0 0 0
SMALL
GASTEIGER

@<TRIPOS>ATOM
      1 N         141.2357  139.3879  161.8682 N.3     1  UNL1       -0.2711
      2 C         141.3782  138.0336  161.2391 C.3     1  UNL1        0.0933
      3 C         141.5544  138.6764  159.8953 C.3     1  UNL1        0.1035
      4 C         141.4119  140.0307  160.5244 C.3     1  UNL1        0.0933
      5 C         140.5597  140.8971  166.0533 C.3     1  UNL1        0.0404
      6 C         140.9086  139.4566  165.8227 C.3     1  UNL1        0.0073
      7 C         141.1339  138.9535  164.4277 C.3     1  UNL1        0.0163
      8 C         141.0104  139.8909  163.2633 C.3     1  UNL1        0.0576
      9 C         140.6614  141.3314  163.4939 C.3     1  UNL1        0.0163
     10 C         140.4361  141.8345  164.8889 C.3     1  UNL1        0.0073
     11 N         139.6583  142.9093  171.6335 N.pl3   1  UNL1       -0.3558
     12 C         139.8836  142.4063  170.2385 C.ar    1  UNL1        0.0610
     13 C         140.4432  143.3234  169.1917 C.ar    1  UNL1        0.0169
     14 C         140.6685  142.8203  167.7967 C.ar    1  UNL1        0.0160
     15 C         140.3343  141.4001  167.4484 C.ar    1  UNL1        0.0587
     16 N         139.7747  140.4830  168.4951 N.ar    1  UNL1       -0.2469
     17 C         139.5494  140.9861  169.8902 C.ar    1  UNL1        0.1124
     18 H         139.8776  143.8415  171.8621 H       1  UNL1        0.1424
     19 H         139.2910  142.3074  172.3205 H       1  UNL1        0.1424
     20 N         141.7797  138.1734  158.5003 N.am    1  UNL1       -0.3018
     21 C         140.6228  138.0403  157.5550 C.2     1  UNL1        0.2426
     22 O         139.2404  138.4104  158.0046 O.2     1  UNL1       -0.2733
     23 H         142.6870  137.9305  158.2052 H       1  UNL1        0.1495
     24 C         140.8481  137.5373  156.1599 C.3     1  UNL1        0.1759
     25 N         141.2502  136.1100  155.9331 N.am    1  UNL1       -0.2931
     26 C         142.6868  135.7035  156.0777 C.2     1  UNL1        0.2462
     27 O         143.7213  136.7242  156.4491 O.2     1  UNL1       -0.2701
     28 H         140.5711  135.4401  155.6894 H       1  UNL1        0.1502
     29 C         143.0888  134.2763  155.8509 C.ar    1  UNL1        0.0533
     30 C         142.7309  133.5915  154.5652 C.ar    1  UNL1        0.0045
     31 C         143.1330  132.1643  154.3384 C.ar    1  UNL1        0.0001
     32 C         143.8929  131.4219  155.3973 C.ar    1  UNL1        0.0039
     33 C         144.2509  132.1066  156.6830 C.ar    1  UNL1        0.0716
     34 C         143.8488  133.5339  156.9098 C.ar    1  UNL1        0.0084
     35 C         145.0108  131.3642  157.7419 C.3     1  UNL1        0.4186
     36 F         145.7708  130.6218  158.8008 F       1  UNL1       -0.1659
     37 F         145.4097  132.6671  158.3691 F       1  UNL1       -0.1659
     38 F         144.6120  130.0613  157.1147 F       1  UNL1       -0.1659
@<TRIPOS>BOND
     1    11    12    1
     2    12    13   ar
     3    13    14   ar
     4    14    15   ar
     5     5    15    1
     6     5     6    1
     7     6     7    1
     8     7     8    1
     9     8     1    1
    10     1     2    1
    11     2     3    1
    12     3    20    1
    13    20    21   am
    14    21    22    2
    15    21    24    1
    16    24    25    1
    17    25    26   am
    18    26    27    2
    19    26    29    1
    20    29    30   ar
    21    30    31   ar
    22    31    32   ar
    23    32    33   ar
    24    33    35    1
    25    35    36    1
    26    35    37    1
    27    35    38    1
    28    33    34   ar
    29     3     4    1
    30     8     9    1
    31     9    10    1
    32    15    16   ar
    33    16    17   ar
    34    17    12   ar
    35    10     5    1
    36     4     1    1
    37    34    29   ar
    38    11    18    1
    39    11    19    1
    40    20    23    1
    41    25    28    1
@<TRIPOS>MOLECULE
*****
 38 41 0 0 0
SMALL
GASTEIGER

@<TRIPOS>ATOM
      1 N         142.7120  138.8356  161.9760 N.3     1  UNL1       -0.2711
      2 C         142.0811  137.6914  161.2391 C.3     1  UNL1        0.0933
      3 C         142.8035  138.0982  159.9891 C.3     1  UNL1        0.1035
      4 C         143.4345  139.2423  160.7259 C.3     1  UNL1        0.0933
      5 C         142.5179  140.3998  166.1909 C.3     1  UNL1        0.0404
      6 C         142.6136  138.9237  165.9424 C.3     1  UNL1        0.0073
      7 C         142.6783  138.4022  164.5375 C.3     1  UNL1        0.0163
      8 C         142.6473  139.3570  163.3810 C.3     1  UNL1        0.0576
      9 C         142.5516  140.8331  163.6295 C.3     1  UNL1        0.0163
     10 C         142.4869  141.3545  165.0344 C.3     1  UNL1        0.0073
     11 N         142.2591  142.4855  171.8108 N.pl3   1  UNL1       -0.3558
     12 C         142.3238  141.9641  170.4058 C.ar    1  UNL1        0.0610
     13 C         141.8026  142.7966  169.2721 C.ar    1  UNL1        0.0169
     14 C         141.8673  142.2751  167.8672 C.ar    1  UNL1        0.0160
     15 C         142.4532  140.9212  167.5959 C.ar    1  UNL1        0.0587
     16 N         142.9744  140.0888  168.7296 N.ar    1  UNL1       -0.2469
     17 C         142.9097  140.6102  170.1345 C.ar    1  UNL1        0.1124
     18 H         141.8745  143.3741  171.9888 H       1  UNL1        0.1424
     19 H         142.6012  141.9391  172.5549 H       1  UNL1        0.1424
     20 N         142.8683  137.5767  158.5841 N.am    1  UNL1       -0.3018
     21 C         141.6559  137.6419  157.7034 C.2     1  UNL1        0.2426
     22 O         140.3787  138.2286  158.2276 O.2     1  UNL1       -0.2733
     23 H         143.7065  137.1917  158.2401 H       1  UNL1        0.1495
     24 C         141.7206  137.1205  156.2984 C.3     1  UNL1        0.1759
     25 N         141.5172  135.6586  156.0309 N.am    1  UNL1       -0.2931
     26 C         142.5878  134.6733  156.3959 C.2     1  UNL1        0.2462
     27 O         143.8616  135.1500  157.0285 O.2     1  UNL1       -0.2701
     28 H         140.6812  135.3457  155.6157 H       1  UNL1        0.1502
     29 C         142.3845  133.2115  156.1284 C.ar    1  UNL1        0.0533
     30 C         143.2129  132.1937  156.8550 C.ar    1  UNL1        0.0045
     31 C         143.0096  130.7319  156.5875 C.ar    1  UNL1        0.0001
     32 C         141.9779  130.2877  155.5934 C.ar    1  UNL1        0.0039
     33 C         141.1495  131.3053  154.8668 C.ar    1  UNL1        0.0716
     34 C         141.3527  132.7673  155.1343 C.ar    1  UNL1        0.0084
     35 C         140.1177  130.8612  153.8728 C.3     1  UNL1        0.4186
     36 F         139.0860  130.4170  152.8787 F       1  UNL1       -0.1659
     37 F         141.1531  130.8847  152.7876 F       1  UNL1       -0.1659
     38 F         139.0824  130.8376  154.9579 F       1  UNL1       -0.1659
@<TRIPOS>BOND
     1    11    12    1
     2    12    13   ar
     3    13    14   ar
     4    14    15   ar
     5     5    15    1
     6     5     6    1
     7     6     7    1
     8     7     8    1
     9     8     1    1
    10     1     2    1
    11     2     3    1
    12     3    20    1
    13    20    21   am
    14    21    22    2
    15    21    24    1
    16    24    25    1
    17    25    26   am
    18    26    27    2
    19    26    29    1
    20    29    30   ar
    21    30    31   ar
    22    31    32   ar
    23    32    33   ar
    24    33    35    1
    25    35    36    1
    26    35    37    1
    27    35    38    1
    28    33    34   ar
    29     3     4    1
    30     8     9    1
    31     9    10    1
    32    15    16   ar
    33    16    17   ar
    34    17    12   ar
    35    10     5    1
    36     4     1    1
    37    34    29   ar
    38    11    18    1
    39    11    19    1
    40    20    23    1
    41    25    28    1
@<TRIPOS>MOLECULE
*****
 38 41 0 0 0
SMALL
GASTEIGER

@<TRIPOS>ATOM
      1 N         142.8102  138.5856  162.0413 N.3     1  UNL1       -0.2711
      2 C         143.9166  138.1155  161.1440 C.3     1  UNL1        0.0933
      3 C         142.9159  137.8153  160.0676 C.3     1  UNL1        0.1035
      4 C         141.8096  138.2854  160.9648 C.3     1  UNL1        0.0933
      5 C         142.5859  140.2197  166.2281 C.3     1  UNL1        0.0404
      6 C         141.9594  138.8956  165.9052 C.3     1  UNL1        0.0073
      7 C         142.0342  138.3509  164.5096 C.3     1  UNL1        0.0163
      8 C         142.7354  139.1303  163.4369 C.3     1  UNL1        0.0576
      9 C         143.3620  140.4544  163.7598 C.3     1  UNL1        0.0163
     10 C         143.2872  140.9990  165.1554 C.3     1  UNL1        0.0073
     11 N         142.2869  142.3984  171.8106 N.pl3   1  UNL1       -0.3558
     12 C         142.3616  141.8537  170.4150 C.ar    1  UNL1        0.0610
     13 C         141.9677  142.7148  169.2517 C.ar    1  UNL1        0.0169
     14 C         142.0425  142.1702  167.8561 C.ar    1  UNL1        0.0160
     15 C         142.5112  140.7643  167.6237 C.ar    1  UNL1        0.0587
     16 N         142.9050  139.9032  168.7870 N.ar    1  UNL1       -0.2469
     17 C         142.8303  140.4479  170.1826 C.ar    1  UNL1        0.1124
     18 H         141.9793  143.3211  171.9631 H       1  UNL1        0.1424
     19 H         142.5454  141.8332  172.5741 H       1  UNL1        0.1424
     20 N         142.9907  137.2707  158.6720 N.am    1  UNL1       -0.3018
     21 C         143.0482  138.2086  157.5029 C.2     1  UNL1        0.2426
     22 O         143.0309  139.6914  157.7294 O.2     1  UNL1       -0.2733
     23 H         143.0020  136.2975  158.5234 H       1  UNL1        0.1495
     24 C         143.1230  137.6640  156.1073 C.3     1  UNL1        0.1759
     25 N         143.5585  136.2471  155.8775 N.am    1  UNL1       -0.2931
     26 C         142.5332  135.1663  155.7025 C.2     1  UNL1        0.2462
     27 O         141.0724  135.5024  155.7573 O.2     1  UNL1       -0.2701
     28 H         144.5173  136.0265  155.8416 H       1  UNL1        0.1502
     29 C         142.9688  133.7494  155.4728 C.ar    1  UNL1        0.0533
     30 C         142.7639  133.1099  154.1314 C.ar    1  UNL1        0.0045
     31 C         143.1994  131.6931  153.9017 C.ar    1  UNL1        0.0001
     32 C         143.8398  130.9156  155.0132 C.ar    1  UNL1        0.0039
     33 C         144.0446  131.5551  156.3545 C.ar    1  UNL1        0.0716
     34 C         143.6091  132.9720  156.5843 C.ar    1  UNL1        0.0084
     35 C         144.6850  130.7776  157.4660 C.3     1  UNL1        0.4186
     36 F         145.3254  130.0002  158.5776 F       1  UNL1       -0.1659
     37 F         144.1709  129.5010  156.8694 F       1  UNL1       -0.1659
     38 F         145.1992  132.0542  158.0627 F       1  UNL1       -0.1659
@<TRIPOS>BOND
     1    11    12    1
     2    12    13   ar
     3    13    14   ar
     4    14    15   ar
     5     5    15    1
     6     5     6    1
     7     6     7    1
     8     7     8    1
     9     8     1    1
    10     1     2    1
    11     2     3    1
    12     3    20    1
    13    20    21   am
    14    21    22    2
    15    21    24    1
    16    24    25    1
    17    25    26   am
    18    26    27    2
    19    26    29    1
    20    29    30   ar
    21    30    31   ar
    22    31    32   ar
    23    32    33   ar
    24    33    35    1
    25    35    36    1
    26    35    37    1
    27    35    38    1
    28    33    34   ar
    29     3     4    1
    30     8     9    1
    31     9    10    1
    32    15    16   ar
    33    16    17   ar
    34    17    12   ar
    35    10     5    1
    36     4     1    1
    37    34    29   ar
    38    11    18    1
    39    11    19    1
    40    20    23    1
    41    25    28    1
@<TRIPOS>MOLECULE
*****
 38 41 0 0 0
SMALL
GASTEIGER

@<TRIPOS>ATOM
      1 N         138.9242  140.9667  161.5875 N.3     1  UNL1       -0.2711
      2 C         139.4310  141.0520  160.1783 C.3     1  UNL1        0.0933
      3 C         138.1247  140.5123  159.6759 C.3     1  UNL1        0.1035
      4 C         137.6179  140.4269  161.0851 C.3     1  UNL1        0.0933
      5 C         140.6200  141.9306  165.6428 C.3     1  UNL1        0.0404
      6 C         139.3681  141.1124  165.5286 C.3     1  UNL1        0.0073
      7 C         138.8028  140.7911  164.1768 C.3     1  UNL1        0.0163
      8 C         139.4895  141.2880  162.9393 C.3     1  UNL1        0.0576
      9 C         140.7414  142.1062  163.0535 C.3     1  UNL1        0.0163
     10 C         141.3067  142.4275  164.4052 C.3     1  UNL1        0.0073
     11 N         142.8812  143.2159  171.0497 N.pl3   1  UNL1       -0.3558
     12 C         142.3159  142.8946  169.6980 C.ar    1  UNL1        0.0610
     13 C         143.1869  142.2664  168.6508 C.ar    1  UNL1        0.0169
     14 C         142.6216  141.9451  167.2991 C.ar    1  UNL1        0.0160
     15 C         141.1853  142.2520  166.9945 C.ar    1  UNL1        0.0587
     16 N         140.3143  142.8801  168.0417 N.ar    1  UNL1       -0.2469
     17 C         140.8796  143.2014  169.3935 C.ar    1  UNL1        0.1124
     18 H         143.8239  143.0145  171.2496 H       1  UNL1        0.1424
     19 H         142.3095  143.6282  171.7371 H       1  UNL1        0.1424
     20 N         137.5595  140.1910  158.3242 N.am    1  UNL1       -0.3018
     21 C         137.2314  141.2975  157.3661 C.2     1  UNL1        0.2426
     22 O         137.4686  142.7254  157.7597 O.2     1  UNL1       -0.2733
     23 H         137.4038  139.2538  158.0658 H       1  UNL1        0.1495
     24 C         136.6661  140.9762  156.0144 C.3     1  UNL1        0.1759
     25 N         135.1918  141.1030  155.7685 N.am    1  UNL1       -0.2931
     26 C         134.2210  140.3410  156.6211 C.2     1  UNL1        0.2462
     27 O         134.7245  139.4522  157.7195 O.2     1  UNL1       -0.2701
     28 H         134.8613  141.6864  155.0475 H       1  UNL1        0.1502
     29 C         132.7467  140.4678  156.3753 C.ar    1  UNL1        0.0533
     30 C         132.2287  141.5325  155.4542 C.ar    1  UNL1        0.0045
     31 C         130.7545  141.6593  155.2084 C.ar    1  UNL1        0.0001
     32 C         129.7981  140.7215  155.8836 C.ar    1  UNL1        0.0039
     33 C         130.3160  139.6569  156.8046 C.ar    1  UNL1        0.0716
     34 C         131.7904  139.5300  157.0505 C.ar    1  UNL1        0.0084
     35 C         129.3597  138.7190  157.4798 C.3     1  UNL1        0.4186
     36 F         128.4034  137.7812  158.1550 F       1  UNL1       -0.1659
     37 F         128.7477  139.8735  158.2164 F       1  UNL1       -0.1659
     38 F         129.9717  137.5646  156.7431 F       1  UNL1       -0.1659
@<TRIPOS>BOND
     1    11    12    1
     2    12    13   ar
     3    13    14   ar
     4    14    15   ar
     5     5    15    1
     6     5     6    1
     7     6     7    1
     8     7     8    1
     9     8     1    1
    10     1     2    1
    11     2     3    1
    12     3    20    1
    13    20    21   am
    14    21    22    2
    15    21    24    1
    16    24    25    1
    17    25    26   am
    18    26    27    2
    19    26    29    1
    20    29    30   ar
    21    30    31   ar
    22    31    32   ar
    23    32    33   ar
    24    33    35    1
    25    35    36    1
    26    35    37    1
    27    35    38    1
    28    33    34   ar
    29     3     4    1
    30     8     9    1
    31     9    10    1
    32    15    16   ar
    33    16    17   ar
    34    17    12   ar
    35    10     5    1
    36     4     1    1
    37    34    29   ar
    38    11    18    1
    39    11    19    1
    40    20    23    1
    41    25    28    1
@<TRIPOS>MOLECULE
*****
 38 41 0 0 0
SMALL
GASTEIGER

@<TRIPOS>ATOM
      1 N         141.3411  137.8068  156.7019 N.3     1  UNL1       -0.2711
      2 C         140.3288  138.7552  156.1310 C.3     1  UNL1        0.0933
      3 C         140.5769  139.7034  157.2665 C.3     1  UNL1        0.1035
      4 C         141.5892  138.7550  157.8374 C.3     1  UNL1        0.0933
      5 C         142.9622  133.7834  155.5042 C.3     1  UNL1        0.0404
      6 C         143.7552  134.6697  156.4183 C.3     1  UNL1        0.0073
      7 C         143.2149  136.0108  156.8175 C.3     1  UNL1        0.0163
      8 C         141.8815  136.4656  156.3027 C.3     1  UNL1        0.0576
      9 C         141.0884  135.5794  155.3886 C.3     1  UNL1        0.0163
     10 C         141.6288  134.2382  154.9894 C.3     1  UNL1        0.0073
     11 N         145.1237  128.4189  153.9072 N.pl3   1  UNL1       -0.3558
     12 C         144.5834  129.7600  154.3065 C.ar    1  UNL1        0.0610
     13 C         144.9503  130.3512  155.6353 C.ar    1  UNL1        0.0169
     14 C         144.4099  131.6923  156.0346 C.ar    1  UNL1        0.0160
     15 C         143.5026  132.4423  155.1049 C.ar    1  UNL1        0.0587
     16 N         143.1357  131.8512  153.7761 N.ar    1  UNL1       -0.2469
     17 C         143.6760  130.5100  153.3769 C.ar    1  UNL1        0.1124
     18 H         145.7192  127.9267  154.5174 H       1  UNL1        0.1424
     19 H         144.8829  128.0310  153.0350 H       1  UNL1        0.1424
     20 N         140.0365  141.0445  157.6658 N.am    1  UNL1       -0.3018
     21 C         138.6799  141.1488  158.2971 C.2     1  UNL1        0.2426
     22 O         137.8635  139.9119  158.5292 O.2     1  UNL1       -0.2733
     23 H         140.5723  141.8563  157.5134 H       1  UNL1        0.1495
     24 C         138.1395  142.4899  158.6963 C.3     1  UNL1        0.1759
     25 N         138.6237  143.1496  159.9535 N.am    1  UNL1       -0.2931
     26 C         138.2250  142.5993  161.2907 C.2     1  UNL1        0.2462
     27 O         137.3420  141.3893  161.3708 O.2     1  UNL1       -0.2701
     28 H         139.2032  143.9437  159.9009 H       1  UNL1        0.1502
     29 C         138.7092  143.2589  162.5479 C.ar    1  UNL1        0.0533
     30 C         137.7394  143.5867  163.6443 C.ar    1  UNL1        0.0045
     31 C         138.2236  144.2463  164.9015 C.ar    1  UNL1        0.0001
     32 C         139.6775  144.5783  165.0622 C.ar    1  UNL1        0.0039
     33 C         140.6473  144.2506  163.9658 C.ar    1  UNL1        0.0716
     34 C         140.1631  143.5909  162.7086 C.ar    1  UNL1        0.0084
     35 C         142.1012  144.5825  164.1265 C.3     1  UNL1        0.4186
     36 F         143.5552  144.9145  164.2873 F       1  UNL1       -0.1659
     37 F         142.3257  143.2673  164.8120 F       1  UNL1       -0.1659
     38 F         141.8767  145.8977  163.4411 F       1  UNL1       -0.1659
@<TRIPOS>BOND
     1    11    12    1
     2    12    13   ar
     3    13    14   ar
     4    14    15   ar
     5     5    15    1
     6     5     6    1
     7     6     7    1
     8     7     8    1
     9     8     1    1
    10     1     2    1
    11     2     3    1
    12     3    20    1
    13    20    21   am
    14    21    22    2
    15    21    24    1
    16    24    25    1
    17    25    26   am
    18    26    27    2
    19    26    29    1
    20    29    30   ar
    21    30    31   ar
    22    31    32   ar
    23    32    33   ar
    24    33    35    1
    25    35    36    1
    26    35    37    1
    27    35    38    1
    28    33    34   ar
    29     3     4    1
    30     8     9    1
    31     9    10    1
    32    15    16   ar
    33    16    17   ar
    34    17    12   ar
    35    10     5    1
    36     4     1    1
    37    34    29   ar
    38    11    18    1
    39    11    19    1
    40    20    23    1
    41    25    28    1
@<TRIPOS>MOLECULE
*****
 38 41 0 0 0
SMALL
GASTEIGER

@<TRIPOS>ATOM
      1 N         141.1995  139.3096  161.9358 N.3     1  UNL1       -0.2711
      2 C         141.2921  139.9271  160.5719 C.3     1  UNL1        0.0933
      3 C         141.5172  138.5704  159.9730 C.3     1  UNL1        0.1035
      4 C         141.4247  137.9529  161.3368 C.3     1  UNL1        0.0933
      5 C         140.5256  140.8776  166.0996 C.3     1  UNL1        0.0404
      6 C         141.8857  140.3948  165.6910 C.3     1  UNL1        0.0073
      7 C         142.1104  139.8721  164.3031 C.3     1  UNL1        0.0163
      8 C         140.9749  139.8322  163.3238 C.3     1  UNL1        0.0576
      9 C         139.6148  140.3150  163.7324 C.3     1  UNL1        0.0163
     10 C         139.3902  140.8377  165.1203 C.3     1  UNL1        0.0073
     11 N         139.6271  142.9682  171.6514 N.pl3   1  UNL1       -0.3558
     12 C         139.8517  142.4456  170.2634 C.ar    1  UNL1        0.0610
     13 C         140.4351  143.3403  169.2103 C.ar    1  UNL1        0.0169
     14 C         140.6597  142.8177  167.8224 C.ar    1  UNL1        0.0160
     15 C         140.3010  141.4002  167.4876 C.ar    1  UNL1        0.0587
     16 N         139.7176  140.5055  168.5406 N.ar    1  UNL1       -0.2469
     17 C         139.4930  141.0281  169.9286 C.ar    1  UNL1        0.1124
     18 H         139.8625  143.8986  171.8711 H       1  UNL1        0.1424
     19 H         139.2442  142.3809  172.3425 H       1  UNL1        0.1424
     20 N         141.7419  138.0478  158.5851 N.am    1  UNL1       -0.3018
     21 C         140.5943  137.9554  157.6236 C.2     1  UNL1        0.2426
     22 O         139.2220  138.3856  158.0500 O.2     1  UNL1       -0.2733
     23 H         142.6425  137.7654  158.3052 H       1  UNL1        0.1495
     24 C         140.8190  137.4327  156.2356 C.3     1  UNL1        0.1759
     25 N         141.2746  136.0182  156.0315 N.am    1  UNL1       -0.2931
     26 C         142.7263  135.6695  156.1771 C.2     1  UNL1        0.2462
     27 O         143.7222  136.7353  156.5268 O.2     1  UNL1       -0.2701
     28 H         140.6210  135.3187  155.8020 H       1  UNL1        0.1502
     29 C         143.1820  134.2551  155.9730 C.ar    1  UNL1        0.0533
     30 C         144.1960  133.6526  156.8998 C.ar    1  UNL1        0.0045
     31 C         144.6517  132.2382  156.6957 C.ar    1  UNL1        0.0001
     32 C         144.0935  131.4262  155.5648 C.ar    1  UNL1        0.0039
     33 C         143.0795  132.0285  154.6380 C.ar    1  UNL1        0.0716
     34 C         142.6238  133.4430  154.8421 C.ar    1  UNL1        0.0084
     35 C         142.5213  131.2165  153.5071 C.3     1  UNL1        0.4186
     36 F         141.9631  130.4045  152.3762 F       1  UNL1       -0.1659
     37 F         142.7501  132.3649  152.5696 F       1  UNL1       -0.1659
     38 F         142.2925  130.0681  154.4446 F       1  UNL1       -0.1659
@<TRIPOS>BOND
     1    11    12    1
     2    12    13   ar
     3    13    14   ar
     4    14    15   ar
     5     5    15    1
     6     5     6    1
     7     6     7    1
     8     7     8    1
     9     8     1    1
    10     1     2    1
    11     2     3    1
    12     3    20    1
    13    20    21   am
    14    21    22    2
    15    21    24    1
    16    24    25    1
    17    25    26   am
    18    26    27    2
    19    26    29    1
    20    29    30   ar
    21    30    31   ar
    22    31    32   ar
    23    32    33   ar
    24    33    35    1
    25    35    36    1
    26    35    37    1
    27    35    38    1
    28    33    34   ar
    29     3     4    1
    30     8     9    1
    31     9    10    1
    32    15    16   ar
    33    16    17   ar
    34    17    12   ar
    35    10     5    1
    36     4     1    1
    37    34    29   ar
    38    11    18    1
    39    11    19    1
    40    20    23    1
    41    25    28    1
@<TRIPOS>MOLECULE
*****
 38 41 0 0 0
SMALL
GASTEIGER

@<TRIPOS>ATOM
      1 N         140.9495  144.2767  162.0865 N.3     1  UNL1       -0.2711
      2 C         140.3411  145.4490  161.3753 C.3     1  UNL1        0.0933
      3 C         141.0588  145.0582  160.1174 C.3     1  UNL1        0.1035
      4 C         141.6672  143.8860  160.8285 C.3     1  UNL1        0.0933
      5 C         140.7177  142.6188  166.2635 C.3     1  UNL1        0.0404
      6 C         141.9647  142.4328  165.4509 C.3     1  UNL1        0.0073
      7 C         142.0419  142.9854  164.0586 C.3     1  UNL1        0.0163
      8 C         140.8722  143.7241  163.4788 C.3     1  UNL1        0.0576
      9 C         139.6253  143.9101  164.2915 C.3     1  UNL1        0.0163
     10 C         139.5480  143.3575  165.6838 C.3     1  UNL1        0.0073
     11 N         140.4086  140.4083  171.8329 N.pl3   1  UNL1       -0.3558
     12 C         140.4859  140.9610  170.4406 C.ar    1  UNL1        0.0610
     13 C         140.0434  140.1252  169.2763 C.ar    1  UNL1        0.0169
     14 C         140.1207  140.6778  167.8840 C.ar    1  UNL1        0.0160
     15 C         140.6404  142.0662  167.6559 C.ar    1  UNL1        0.0587
     16 N         141.0829  142.9020  168.8202 N.ar    1  UNL1       -0.2469
     17 C         141.0057  142.3494  170.2125 C.ar    1  UNL1        0.1124
     18 H         140.0675  139.4971  171.9826 H       1  UNL1        0.1424
     19 H         140.6991  140.9569  172.5971 H       1  UNL1        0.1424
     20 N         141.1360  145.6109  158.7251 N.am    1  UNL1       -0.3018
     21 C         140.4338  144.9102  157.6000 C.2     1  UNL1        0.2426
     22 O         139.6542  143.6568  157.8673 O.2     1  UNL1       -0.2733
     23 H         141.6477  146.4335  158.5497 H       1  UNL1        0.1495
     24 C         140.5110  145.4628  156.2077 C.3     1  UNL1        0.1759
     25 N         140.5112  146.9468  155.9887 N.am    1  UNL1       -0.2931
     26 C         139.3208  147.6130  155.3649 C.2     1  UNL1        0.2462
     27 O         138.1302  146.7953  154.9602 O.2     1  UNL1       -0.2701
     28 H         141.2927  147.4835  156.2544 H       1  UNL1        0.1502
     29 C         139.3210  149.0969  155.1459 C.ar    1  UNL1        0.0533
     30 C         138.3682  149.9679  155.9099 C.ar    1  UNL1        0.0045
     31 C         138.3684  151.4518  155.6909 C.ar    1  UNL1        0.0001
     32 C         139.3213  152.0648  154.7080 C.ar    1  UNL1        0.0039
     33 C         140.2741  151.1939  153.9441 C.ar    1  UNL1        0.0716
     34 C         140.2740  149.7099  154.1630 C.ar    1  UNL1        0.0084
     35 C         141.2270  151.8068  152.9611 C.3     1  UNL1        0.4186
     36 F         142.1800  152.4198  151.9782 F       1  UNL1       -0.1659
     37 F         141.0639  153.1380  153.6331 F       1  UNL1       -0.1659
     38 F         141.3902  150.4757  152.2892 F       1  UNL1       -0.1659
@<TRIPOS>BOND
     1    11    12    1
     2    12    13   ar
     3    13    14   ar
     4    14    15   ar
     5     5    15    1
     6     5     6    1
     7     6     7    1
     8     7     8    1
     9     8     1    1
    10     1     2    1
    11     2     3    1
    12     3    20    1
    13    20    21   am
    14    21    22    2
    15    21    24    1
    16    24    25    1
    17    25    26   am
    18    26    27    2
    19    26    29    1
    20    29    30   ar
    21    30    31   ar
    22    31    32   ar
    23    32    33   ar
    24    33    35    1
    25    35    36    1
    26    35    37    1
    27    35    38    1
    28    33    34   ar
    29     3     4    1
    30     8     9    1
    31     9    10    1
    32    15    16   ar
    33    16    17   ar
    34    17    12   ar
    35    10     5    1
    36     4     1    1
    37    34    29   ar
    38    11    18    1
    39    11    19    1
    40    20    23    1
    41    25    28    1
@<TRIPOS>MOLECULE
*****
 38 41 0 0 0
SMALL
GASTEIGER

@<TRIPOS>ATOM
      1 N         139.5906  146.2425  156.3543 N.3     1  UNL1       -0.2711
      2 C         140.5365  145.6204  157.3384 C.3     1  UNL1        0.0933
      3 C         139.8669  144.2926  157.1425 C.3     1  UNL1        0.1035
      4 C         138.9211  144.9145  156.1584 C.3     1  UNL1        0.0933
      5 C         139.0046  150.3790  154.6822 C.3     1  UNL1        0.0404
      6 C         139.7792  149.3579  153.9030 C.3     1  UNL1        0.0073
      7 C         139.9746  147.9790  154.4604 C.3     1  UNL1        0.0163
      8 C         139.3953  147.6213  155.7969 C.3     1  UNL1        0.0576
      9 C         138.6206  148.6425  156.5761 C.3     1  UNL1        0.0163
     10 C         138.4253  150.0213  156.0187 C.3     1  UNL1        0.0073
     11 N         138.2232  155.8943  152.4527 N.pl3   1  UNL1       -0.3558
     12 C         138.4185  154.5155  153.0101 C.ar    1  UNL1        0.0610
     13 C         138.3601  154.2903  154.4919 C.ar    1  UNL1        0.0169
     14 C         138.5554  152.9115  155.0492 C.ar    1  UNL1        0.0160
     15 C         138.8092  151.7578  154.1248 C.ar    1  UNL1        0.0587
     16 N         138.8677  151.9830  152.6430 N.ar    1  UNL1       -0.2469
     17 C         138.6723  153.3618  152.0856 C.ar    1  UNL1        0.1124
     18 H         138.0566  156.6515  153.0594 H       1  UNL1        0.1424
     19 H         138.2615  156.0421  151.4801 H       1  UNL1        0.1424
     20 N         140.0622  142.9137  157.6999 N.am    1  UNL1       -0.3018
     21 C         139.7312  142.6312  159.1353 C.2     1  UNL1        0.2426
     22 O         139.2047  143.7275  160.0134 O.2     1  UNL1       -0.2733
     23 H         140.4078  142.1942  157.1235 H       1  UNL1        0.1495
     24 C         139.9265  141.2523  159.6927 C.3     1  UNL1        0.1759
     25 N         140.0494  141.0528  161.1743 N.am    1  UNL1       -0.2931
     26 C         138.8163  140.9219  162.0183 C.2     1  UNL1        0.2462
     27 O         137.4603  140.9907  161.3806 O.2     1  UNL1       -0.2701
     28 H         140.9394  141.0076  161.5928 H       1  UNL1        0.1502
     29 C         138.9391  140.7224  163.4998 C.ar    1  UNL1        0.0533
     30 C         139.5525  141.7932  164.3525 C.ar    1  UNL1        0.0045
     31 C         139.6754  141.5936  165.8341 C.ar    1  UNL1        0.0001
     32 C         139.1848  140.3233  166.4630 C.ar    1  UNL1        0.0039
     33 C         138.5714  139.2525  165.6103 C.ar    1  UNL1        0.0716
     34 C         138.4485  139.4520  164.1287 C.ar    1  UNL1        0.0084
     35 C         138.0808  137.9821  166.2392 C.3     1  UNL1        0.4186
     36 F         137.5903  136.7117  166.8681 F       1  UNL1       -0.1659
     37 F         137.3128  138.7796  167.2512 F       1  UNL1       -0.1659
     38 F         138.8489  137.1845  165.2273 F       1  UNL1       -0.1659
@<TRIPOS>BOND
     1    11    12    1
     2    12    13   ar
     3    13    14   ar
     4    14    15   ar
     5     5    15    1
     6     5     6    1
     7     6     7    1
     8     7     8    1
     9     8     1    1
    10     1     2    1
    11     2     3    1
    12     3    20    1
    13    20    21   am
    14    21    22    2
    15    21    24    1
    16    24    25    1
    17    25    26   am
    18    26    27    2
    19    26    29    1
    20    29    30   ar
    21    30    31   ar
    22    31    32   ar
    23    32    33   ar
    24    33    35    1
    25    35    36    1
    26    35    37    1
    27    35    38    1
    28    33    34   ar
    29     3     4    1
    30     8     9    1
    31     9    10    1
    32    15    16   ar
    33    16    17   ar
    34    17    12   ar
    35    10     5    1
    36     4     1    1
    37    34    29   ar
    38    11    18    1
    39    11    19    1
    40    20    23    1
    41    25    28    1
@<TRIPOS>MOLECULE
*****
 38 41 0 0 0
SMALL
GASTEIGER

@<TRIPOS>ATOM
      1 N         141.5057  137.7553  157.0198 N.3     1  UNL1       -0.2711
      2 C         140.7702  138.9036  156.3948 C.3     1  UNL1        0.0933
      3 C         140.8020  139.6361  157.7034 C.3     1  UNL1        0.1035
      4 C         141.5375  138.4878  158.3284 C.3     1  UNL1        0.0933
      5 C         142.9985  133.7655  155.5695 C.3     1  UNL1        0.0404
      6 C         141.7935  134.3920  154.9327 C.3     1  UNL1        0.0073
      7 C         141.2959  135.7220  155.4162 C.3     1  UNL1        0.0163
      8 C         142.0033  136.4254  156.5363 C.3     1  UNL1        0.0576
      9 C         143.2082  135.7988  157.1731 C.3     1  UNL1        0.0163
     10 C         143.7058  134.4689  156.6897 C.3     1  UNL1        0.0073
     11 N         144.9888  128.4458  153.6358 N.pl3   1  UNL1       -0.3558
     12 C         144.4912  129.7757  154.1193 C.ar    1  UNL1        0.0610
     13 C         144.8576  130.2602  155.4907 C.ar    1  UNL1        0.0169
     14 C         144.3600  131.5901  155.9742 C.ar    1  UNL1        0.0160
     15 C         143.4960  132.4356  155.0861 C.ar    1  UNL1        0.0587
     16 N         143.1297  131.9511  153.7146 N.ar    1  UNL1       -0.2469
     17 C         143.6272  130.6212  153.2312 C.ar    1  UNL1        0.1124
     18 H         145.5559  127.8909  154.2187 H       1  UNL1        0.1424
     19 H         144.7483  128.1278  152.7357 H       1  UNL1        0.1424
     20 N         140.3044  140.9660  158.1868 N.am    1  UNL1       -0.3018
     21 C         138.8376  141.1797  158.4163 C.2     1  UNL1        0.2426
     22 O         137.8682  140.0634  158.1624 O.2     1  UNL1       -0.2733
     23 H         140.9406  141.6986  158.3535 H       1  UNL1        0.1495
     24 C         138.3400  142.5096  158.8997 C.3     1  UNL1        0.1759
     25 N         138.2529  142.7881  160.3712 N.am    1  UNL1       -0.2931
     26 C         139.4903  143.1401  161.1424 C.2     1  UNL1        0.2462
     27 O         140.8149  143.2137  160.4422 O.2     1  UNL1       -0.2701
     28 H         137.3835  142.7398  160.8307 H       1  UNL1        0.1502
     29 C         139.4032  143.4186  162.6137 C.ar    1  UNL1        0.0533
     30 C         138.2221  144.1585  163.1684 C.ar    1  UNL1        0.0045
     31 C         138.1351  144.4370  164.6397 C.ar    1  UNL1        0.0001
     32 C         139.2290  143.9756  165.5564 C.ar    1  UNL1        0.0039
     33 C         140.4101  143.2357  165.0018 C.ar    1  UNL1        0.0716
     34 C         140.4972  142.9572  163.5304 C.ar    1  UNL1        0.0084
     35 C         141.5041  142.7743  165.9185 C.3     1  UNL1        0.4186
     36 F         142.5980  142.3129  166.8351 F       1  UNL1       -0.1659
     37 F         140.6390  143.0805  167.1050 F       1  UNL1       -0.1659
     38 F         142.3692  142.4681  164.7319 F       1  UNL1       -0.1659
@<TRIPOS>BOND
     1    11    12    1
     2    12    13   ar
     3    13    14   ar
     4    14    15   ar
     5     5    15    1
     6     5     6    1
     7     6     7    1
     8     7     8    1
     9     8     1    1
    10     1     2    1
    11     2     3    1
    12     3    20    1
    13    20    21   am
    14    21    22    2
    15    21    24    1
    16    24    25    1
    17    25    26   am
    18    26    27    2
    19    26    29    1
    20    29    30   ar
    21    30    31   ar
    22    31    32   ar
    23    32    33   ar
    24    33    35    1
    25    35    36    1
    26    35    37    1
    27    35    38    1
    28    33    34   ar
    29     3     4    1
    30     8     9    1
    31     9    10    1
    32    15    16   ar
    33    16    17   ar
    34    17    12   ar
    35    10     5    1
    36     4     1    1
    37    34    29   ar
    38    11    18    1
    39    11    19    1
    40    20    23    1
    41    25    28    1
