@<TRIPOS>MOLECULE
*****
 36 39 0 0 0
SMALL
GASTEIGER

@<TRIPOS>ATOM
      1 N         140.5540  140.5443  167.7760 N.3     1  UNL1       -0.2663
      2 C         140.5969  142.0437  167.7882 C.3     1  UNL1        0.0860
      3 C         140.7952  142.7987  166.5073 C.ar    1  UNL1       -0.0051
      4 C         142.1132  142.7328  165.7941 C.ar    1  UNL1       -0.0020
      5 C         142.3114  143.4878  164.5133 C.ar    1  UNL1        0.0134
      6 C         141.1917  144.3088  163.9456 C.ar    1  UNL1        0.0850
      7 CL        141.3900  145.0639  162.6647 Cl      1  UNL1       -0.0799
      8 C         139.8738  144.3748  164.6588 C.ar    1  UNL1        0.1503
      9 F         138.7541  145.1958  164.0911 F       1  UNL1       -0.2033
     10 C         139.6755  143.6197  165.9396 C.ar    1  UNL1        0.0276
     11 C         140.4416  142.7880  169.0812 C.3     1  UNL1        0.0622
     12 O         138.7739  141.3233  170.4316 O.co2   1  UNL1       -0.5491
     13 C         140.0846  142.0463  170.3353 C.2     1  UNL1        0.0520
     14 O         141.0383  142.0278  171.4929 O.co2   1  UNL1       -0.5491
     15 C         139.2834  139.8334  167.4150 C.3     1  UNL1        0.0994
     16 C         138.9950  139.4936  165.9827 C.ar    1  UNL1       -0.0051
     17 C         139.3767  138.1484  165.4395 C.ar    1  UNL1        0.0002
     18 C         139.0883  137.8087  164.0072 C.ar    1  UNL1        0.0375
     19 C         138.4183  138.8140  163.1182 C.ar    1  UNL1        0.1490
     20 C         138.0367  140.1591  163.6614 C.ar    1  UNL1        0.0912
     21 CL        137.3667  141.1644  162.7724 Cl      1  UNL1       -0.0791
     22 C         138.3250  140.4989  165.0937 C.ar    1  UNL1        0.0115
     23 O         138.1299  138.4743  161.6859 O.3     1  UNL1       -0.4727
     24 C         139.2606  138.2461  160.7269 C.3     1  UNL1        0.2273
     25 C         140.3645  139.2555  160.6152 C.3     1  UNL1        0.1481
     26 N         141.7399  138.9207  161.1112 N.am    1  UNL1       -0.2260
     27 C         142.7708  138.1164  160.3761 C.2     1  UNL1        0.2319
     28 O         142.6073  137.5057  159.0159 O.2     1  UNL1       -0.2745
     29 C         143.9940  138.0301  161.2401 C.3     1  UNL1        0.0953
     30 C         143.7190  138.7810  162.5092 C.3     1  UNL1        0.0953
     31 C         142.3259  139.3314  162.4295 C.2     1  UNL1        0.2319
     32 O         141.6394  140.1490  163.4832 O.2     1  UNL1       -0.2745
     33 C         141.7815  139.7560  168.1247 C.3     1  UNL1        0.0726
     34 C         142.6795  139.2459  167.0369 C.3     1  UNL1        0.0160
     35 C         143.1542  138.1217  166.1647 C.3     1  UNL1        0.0014
     36 C         143.7601  139.4867  166.0248 C.3     1  UNL1        0.0014
@<TRIPOS>UNITY_ATOM_ATTR
12 1
charge -1
@<TRIPOS>BOND
     1    12    13   ar
     2    13    14   ar
     3    13    11    1
     4     2    11    1
     5     2     3    1
     6     3     4   ar
     7     4     5   ar
     8     5     6   ar
     9     6     7    1
    10     6     8   ar
    11     8     9    1
    12     8    10   ar
    13     2     1    1
    14     1    15    1
    15    15    16    1
    16    16    17   ar
    17    17    18   ar
    18    18    19   ar
    19    19    23    1
    20    23    24    1
    21    24    25    1
    22    25    26    1
    23    26    27   am
    24    27    28    2
    25    27    29    1
    26    29    30    1
    27    30    31    1
    28    31    32    2
    29    19    20   ar
    30    20    21    1
    31    20    22   ar
    32     1    33    1
    33    33    34    1
    34    34    35    1
    35    35    36    1
    36    10     3   ar
    37    22    16   ar
    38    36    34    1
    39    31    26   am
@<TRIPOS>MOLECULE
*****
 36 39 0 0 0
SMALL
GASTEIGER

@<TRIPOS>ATOM
      1 N         140.5439  140.3440  167.7628 N.3     1  UNL1       -0.2663
      2 C         140.5088  141.8419  167.8347 C.3     1  UNL1        0.0860
      3 C         140.7822  142.6583  166.6063 C.ar    1  UNL1       -0.0051
      4 C         142.1346  142.6100  165.9593 C.ar    1  UNL1       -0.0020
      5 C         142.4078  143.4265  164.7310 C.ar    1  UNL1        0.0134
      6 C         141.3287  144.2912  164.1498 C.ar    1  UNL1        0.0850
      7 CL        141.6021  145.1076  162.9214 Cl      1  UNL1       -0.0799
      8 C         139.9764  144.3395  164.7968 C.ar    1  UNL1        0.1503
      9 F         138.8973  145.2042  164.2156 F       1  UNL1       -0.2033
     10 C         139.7031  143.5230  166.0251 C.ar    1  UNL1        0.0276
     11 C         140.2005  142.5233  169.1349 C.3     1  UNL1        0.0622
     12 O         140.7412  144.7432  170.3717 O.co2   1  UNL1       -0.5491
     13 C         141.2004  143.4592  169.7468 C.2     1  UNL1        0.0520
     14 O         142.6593  143.1112  169.7337 O.co2   1  UNL1       -0.5491
     15 C         139.3085  139.5822  167.3838 C.3     1  UNL1        0.0994
     16 C         139.0157  139.2983  165.9403 C.ar    1  UNL1       -0.0051
     17 C         139.4057  137.9794  165.3413 C.ar    1  UNL1        0.0002
     18 C         139.1130  137.6955  163.8978 C.ar    1  UNL1        0.0375
     19 C         138.4303  138.7303  163.0533 C.ar    1  UNL1        0.1490
     20 C         138.0403  140.0491  163.6523 C.ar    1  UNL1        0.0912
     21 CL        137.3577  141.0838  162.8079 Cl      1  UNL1       -0.0791
     22 C         138.3331  140.3330  165.0958 C.ar    1  UNL1        0.0115
     23 O         138.1375  138.4464  161.6098 O.3     1  UNL1       -0.4727
     24 C         139.2548  138.0927  160.6735 C.3     1  UNL1        0.2273
     25 C         140.2091  139.1531  160.2101 C.3     1  UNL1        0.1481
     26 N         139.7710  140.5869  160.1614 N.am    1  UNL1       -0.2260
     27 C         140.4119  141.7299  160.8912 C.2     1  UNL1        0.2319
     28 O         141.6035  141.6399  161.7979 O.2     1  UNL1       -0.2745
     29 C         139.6522  142.9789  160.5552 C.3     1  UNL1        0.0953
     30 C         138.5416  142.6076  159.6177 C.3     1  UNL1        0.0953
     31 C         138.6151  141.1293  159.3743 C.2     1  UNL1        0.2319
     32 O         137.6942  140.3333  158.4977 O.2     1  UNL1       -0.2745
     33 C         141.8143  139.6079  168.0698 C.3     1  UNL1        0.0726
     34 C         142.6511  139.0581  166.9529 C.3     1  UNL1        0.0160
     35 C         143.0371  139.0458  165.5035 C.3     1  UNL1        0.0014
     36 C         143.7146  138.1180  166.4680 C.3     1  UNL1        0.0014
@<TRIPOS>UNITY_ATOM_ATTR
12 1
charge -1
@<TRIPOS>BOND
     1    12    13   ar
     2    13    14   ar
     3    13    11    1
     4     2    11    1
     5     2     3    1
     6     3     4   ar
     7     4     5   ar
     8     5     6   ar
     9     6     7    1
    10     6     8   ar
    11     8     9    1
    12     8    10   ar
    13     2     1    1
    14     1    15    1
    15    15    16    1
    16    16    17   ar
    17    17    18   ar
    18    18    19   ar
    19    19    23    1
    20    23    24    1
    21    24    25    1
    22    25    26    1
    23    26    27   am
    24    27    28    2
    25    27    29    1
    26    29    30    1
    27    30    31    1
    28    31    32    2
    29    19    20   ar
    30    20    21    1
    31    20    22   ar
    32     1    33    1
    33    33    34    1
    34    34    35    1
    35    35    36    1
    36    10     3   ar
    37    22    16   ar
    38    36    34    1
    39    31    26   am
@<TRIPOS>MOLECULE
*****
 36 39 0 0 0
SMALL
GASTEIGER

@<TRIPOS>ATOM
      1 N         140.5261  140.6100  167.7286 N.3     1  UNL1       -0.2663
      2 C         140.5316  142.1097  167.7553 C.3     1  UNL1        0.0860
      3 C         140.6932  142.8820  166.4795 C.ar    1  UNL1       -0.0051
      4 C         139.5758  143.7500  165.9816 C.ar    1  UNL1       -0.0020
      5 C         139.7374  144.5222  164.7059 C.ar    1  UNL1        0.0134
      6 C         141.0164  144.4264  163.9280 C.ar    1  UNL1        0.0850
      7 CL        141.1780  145.1986  162.6522 Cl      1  UNL1       -0.0799
      8 C         142.1338  143.5583  164.4259 C.ar    1  UNL1        0.1503
      9 F         143.4128  143.4625  163.6481 F       1  UNL1       -0.2033
     10 C         141.9722  142.7861  165.7017 C.ar    1  UNL1        0.0276
     11 C         140.3756  142.8372  169.0577 C.3     1  UNL1        0.0622
     12 O         138.7724  141.3153  170.4229 O.co2   1  UNL1       -0.5491
     13 C         140.0615  142.0739  170.3103 C.2     1  UNL1        0.0520
     14 O         141.0365  142.0692  171.4501 O.co2   1  UNL1       -0.5491
     15 C         139.2683  139.8707  167.3797 C.3     1  UNL1        0.0994
     16 C         138.9762  139.5204  165.9507 C.ar    1  UNL1       -0.0051
     17 C         139.3261  138.1595  165.4256 C.ar    1  UNL1        0.0002
     18 C         139.0339  137.8091  163.9966 C.ar    1  UNL1        0.0375
     19 C         138.3919  138.8197  163.0928 C.ar    1  UNL1        0.1490
     20 C         138.0421  140.1804  163.6180 C.ar    1  UNL1        0.0912
     21 CL        137.4002  141.1909  162.7142 Cl      1  UNL1       -0.0791
     22 C         138.3343  140.5308  165.0469 C.ar    1  UNL1        0.0115
     23 O         138.0998  138.4693  161.6639 O.3     1  UNL1       -0.4727
     24 C         139.2279  138.2435  160.7013 C.3     1  UNL1        0.2273
     25 C         140.3134  139.2697  160.5639 C.3     1  UNL1        0.1481
     26 N         141.7025  138.9601  161.0377 N.am    1  UNL1       -0.2260
     27 C         142.3014  139.3796  162.3474 C.2     1  UNL1        0.2319
     28 O         141.6162  140.1823  163.4134 O.2     1  UNL1       -0.2745
     29 C         143.7056  138.8554  162.4041 C.3     1  UNL1        0.0953
     30 C         143.9746  138.1119  161.1293 C.3     1  UNL1        0.0953
     31 C         142.7366  138.1767  160.2849 C.2     1  UNL1        0.2319
     32 O         142.5632  137.5653  158.9261 O.2     1  UNL1       -0.2745
     33 C         141.7782  139.8495  168.0508 C.3     1  UNL1        0.0726
     34 C         142.6242  139.2941  166.9436 C.3     1  UNL1        0.0160
     35 C         143.7544  139.4491  165.9697 C.3     1  UNL1        0.0014
     36 C         142.9595  138.1774  166.0000 C.3     1  UNL1        0.0014
@<TRIPOS>UNITY_ATOM_ATTR
12 1
charge -1
@<TRIPOS>BOND
     1    12    13   ar
     2    13    14   ar
     3    13    11    1
     4     2    11    1
     5     2     3    1
     6     3     4   ar
     7     4     5   ar
     8     5     6   ar
     9     6     7    1
    10     6     8   ar
    11     8     9    1
    12     8    10   ar
    13     2     1    1
    14     1    15    1
    15    15    16    1
    16    16    17   ar
    17    17    18   ar
    18    18    19   ar
    19    19    23    1
    20    23    24    1
    21    24    25    1
    22    25    26    1
    23    26    27   am
    24    27    28    2
    25    27    29    1
    26    29    30    1
    27    30    31    1
    28    31    32    2
    29    19    20   ar
    30    20    21    1
    31    20    22   ar
    32     1    33    1
    33    33    34    1
    34    34    35    1
    35    35    36    1
    36    10     3   ar
    37    22    16   ar
    38    36    34    1
    39    31    26   am
@<TRIPOS>MOLECULE
*****
 36 39 0 0 0
SMALL
GASTEIGER

@<TRIPOS>ATOM
      1 N         141.5100  140.2319  167.0799 N.3     1  UNL1       -0.2663
      2 C         141.9305  141.6546  166.8585 C.3     1  UNL1        0.0860
      3 C         141.1870  142.5126  165.8780 C.ar    1  UNL1       -0.0051
      4 C         141.5787  142.5086  164.4301 C.ar    1  UNL1       -0.0020
      5 C         140.8353  143.3665  163.4498 C.ar    1  UNL1        0.0134
      6 C         139.7001  144.2283  163.9173 C.ar    1  UNL1        0.0850
      7 CL        138.9566  145.0863  162.9368 Cl      1  UNL1       -0.0799
      8 C         139.3083  144.2323  165.3652 C.ar    1  UNL1        0.1503
      9 F         138.1732  145.0941  165.8327 F       1  UNL1       -0.2033
     10 C         140.0518  143.3744  166.3456 C.ar    1  UNL1        0.0276
     11 C         143.0944  142.2194  167.6176 C.3     1  UNL1        0.0622
     12 O         144.1844  142.7653  169.9119 O.co2   1  UNL1       -0.5491
     13 C         142.9597  142.5231  169.0804 C.2     1  UNL1        0.0520
     14 O         141.6004  142.5846  169.7115 O.co2   1  UNL1       -0.5491
     15 C         142.3625  139.1093  166.5669 C.3     1  UNL1        0.0994
     16 C         142.3235  138.7419  165.1131 C.ar    1  UNL1       -0.0051
     17 C         141.2790  137.7915  164.6075 C.ar    1  UNL1        0.0002
     18 C         141.2399  137.4241  163.1537 C.ar    1  UNL1        0.0375
     19 C         142.2455  138.0072  162.2055 C.ar    1  UNL1        0.1490
     20 C         143.2899  138.9576  162.7111 C.ar    1  UNL1        0.0912
     21 CL        144.2954  139.5406  161.7629 Cl      1  UNL1       -0.0791
     22 C         143.3290  139.3250  164.1649 C.ar    1  UNL1        0.0115
     23 O         142.2064  137.6398  160.7517 O.3     1  UNL1       -0.4727
     24 C         141.4915  138.5242  159.7735 C.3     1  UNL1        0.2273
     25 C         139.9922  138.5364  159.7303 C.3     1  UNL1        0.1481
     26 N         139.2266  139.5398  160.5408 N.am    1  UNL1       -0.2260
     27 C         139.2729  141.0295  160.3720 C.2     1  UNL1        0.2319
     28 O         140.0930  141.7775  159.3630 O.2     1  UNL1       -0.2745
     29 C         138.3552  141.6401  161.3893 C.3     1  UNL1        0.0953
     30 C         137.7417  140.5276  162.1869 C.3     1  UNL1        0.0953
     31 C         138.2803  139.2296  161.6625 C.2     1  UNL1        0.2319
     32 O         137.9334  137.8616  162.1706 O.2     1  UNL1       -0.2745
     33 C         140.2370  139.9317  167.8143 C.3     1  UNL1        0.0726
     34 C         139.0236  139.4788  167.0576 C.3     1  UNL1        0.0160
     35 C         137.7652  138.6655  166.9872 C.3     1  UNL1        0.0014
     36 C         138.1802  139.5078  165.8175 C.3     1  UNL1        0.0014
@<TRIPOS>UNITY_ATOM_ATTR
12 1
charge -1
@<TRIPOS>BOND
     1    12    13   ar
     2    13    14   ar
     3    13    11    1
     4     2    11    1
     5     2     3    1
     6     3     4   ar
     7     4     5   ar
     8     5     6   ar
     9     6     7    1
    10     6     8   ar
    11     8     9    1
    12     8    10   ar
    13     2     1    1
    14     1    15    1
    15    15    16    1
    16    16    17   ar
    17    17    18   ar
    18    18    19   ar
    19    19    23    1
    20    23    24    1
    21    24    25    1
    22    25    26    1
    23    26    27   am
    24    27    28    2
    25    27    29    1
    26    29    30    1
    27    30    31    1
    28    31    32    2
    29    19    20   ar
    30    20    21    1
    31    20    22   ar
    32     1    33    1
    33    33    34    1
    34    34    35    1
    35    35    36    1
    36    10     3   ar
    37    22    16   ar
    38    36    34    1
    39    31    26   am
@<TRIPOS>MOLECULE
*****
 36 39 0 0 0
SMALL
GASTEIGER

@<TRIPOS>ATOM
      1 N         141.1984  140.5923  167.7024 N.3     1  UNL1       -0.2663
      2 C         139.7949  140.1021  167.5034 C.3     1  UNL1        0.0860
      3 C         139.3074  139.7621  166.1261 C.ar    1  UNL1       -0.0051
      4 C         139.6040  138.4150  165.5368 C.ar    1  UNL1       -0.0020
      5 C         139.1166  138.0751  164.1596 C.ar    1  UNL1        0.0134
      6 C         138.3325  139.0822  163.3716 C.ar    1  UNL1        0.0850
      7 CL        137.8450  138.7422  161.9943 Cl      1  UNL1       -0.0799
      8 C         138.0358  140.4293  163.9609 C.ar    1  UNL1        0.1503
      9 F         137.2517  141.4364  163.1730 F       1  UNL1       -0.2033
     10 C         138.5233  140.7692  165.3382 C.ar    1  UNL1        0.0276
     11 C         138.8787  139.9518  168.6815 C.3     1  UNL1        0.0622
     12 O         139.3363  141.9493  170.2787 O.co2   1  UNL1       -0.5491
     13 C         139.2945  140.4713  170.0259 C.2     1  UNL1        0.0520
     14 O         139.6684  139.5129  171.1175 O.co2   1  UNL1       -0.5491
     15 C         141.5251  142.0401  167.4848 C.3     1  UNL1        0.0994
     16 C         142.0619  142.4970  166.1607 C.ar    1  UNL1       -0.0051
     17 C         143.4721  142.1680  165.7692 C.ar    1  UNL1        0.0002
     18 C         144.0089  142.6249  164.4452 C.ar    1  UNL1        0.0375
     19 C         143.1355  143.4108  163.5126 C.ar    1  UNL1        0.1490
     20 C         141.7254  143.7398  163.9042 C.ar    1  UNL1        0.0912
     21 CL        140.8520  144.5257  162.9717 Cl      1  UNL1       -0.0791
     22 C         141.1886  143.2829  165.2282 C.ar    1  UNL1        0.0115
     23 O         143.6722  143.8678  162.1886 O.3     1  UNL1       -0.4727
     24 C         143.8976  142.8743  161.0875 C.3     1  UNL1        0.2273
     25 C         142.7884  141.9564  160.6669 C.3     1  UNL1        0.1481
     26 N         142.8997  140.4816  160.9173 N.am    1  UNL1       -0.2260
     27 C         142.3444  139.7436  162.0992 C.2     1  UNL1        0.2319
     28 O         141.5804  140.3507  163.2383 O.2     1  UNL1       -0.2745
     29 C         142.6874  138.2918  161.9421 C.3     1  UNL1        0.0953
     30 C         143.4546  138.1326  160.6630 C.3     1  UNL1        0.0953
     31 C         143.5858  139.4860  160.0296 C.2     1  UNL1        0.2319
     32 O         144.2810  139.7902  158.7358 O.2     1  UNL1       -0.2745
     33 C         142.2753  139.6349  168.1190 C.3     1  UNL1        0.0726
     34 C         143.0173  138.8436  167.0830 C.3     1  UNL1        0.0160
     35 C         144.0959  137.8660  166.7214 C.3     1  UNL1        0.0014
     36 C         143.2238  138.4507  165.6502 C.3     1  UNL1        0.0014
@<TRIPOS>UNITY_ATOM_ATTR
12 1
charge -1
@<TRIPOS>BOND
     1    12    13   ar
     2    13    14   ar
     3    13    11    1
     4     2    11    1
     5     2     3    1
     6     3     4   ar
     7     4     5   ar
     8     5     6   ar
     9     6     7    1
    10     6     8   ar
    11     8     9    1
    12     8    10   ar
    13     2     1    1
    14     1    15    1
    15    15    16    1
    16    16    17   ar
    17    17    18   ar
    18    18    19   ar
    19    19    23    1
    20    23    24    1
    21    24    25    1
    22    25    26    1
    23    26    27   am
    24    27    28    2
    25    27    29    1
    26    29    30    1
    27    30    31    1
    28    31    32    2
    29    19    20   ar
    30    20    21    1
    31    20    22   ar
    32     1    33    1
    33    33    34    1
    34    34    35    1
    35    35    36    1
    36    10     3   ar
    37    22    16   ar
    38    36    34    1
    39    31    26   am
@<TRIPOS>MOLECULE
*****
 36 39 0 0 0
SMALL
GASTEIGER

@<TRIPOS>ATOM
      1 N         140.6486  141.0779  167.5340 N.3     1  UNL1       -0.2663
      2 C         141.9931  140.4245  167.4093 C.3     1  UNL1        0.0860
      3 C         142.4372  139.8686  166.0887 C.ar    1  UNL1       -0.0051
      4 C         143.5715  140.5118  165.3475 C.ar    1  UNL1       -0.0020
      5 C         144.0156  139.9559  164.0270 C.ar    1  UNL1        0.0134
      6 C         143.3253  138.7568  163.4477 C.ar    1  UNL1        0.0850
      7 CL        143.7694  138.2009  162.1272 Cl      1  UNL1       -0.0799
      8 C         142.1909  138.1136  164.1889 C.ar    1  UNL1        0.1503
      9 F         141.5006  136.9145  163.6096 F       1  UNL1       -0.2033
     10 C         141.7469  138.6695  165.5094 C.ar    1  UNL1        0.0276
     11 C         142.8934  140.3270  168.6050 C.3     1  UNL1        0.0622
     12 O         143.8980  142.6442  169.2147 O.co2   1  UNL1       -0.5491
     13 C         143.0095  141.4839  169.5528 C.2     1  UNL1        0.0520
     14 O         142.2370  141.4805  170.8386 O.co2   1  UNL1       -0.5491
     15 C         140.4688  142.5087  167.1209 C.3     1  UNL1        0.0994
     16 C         140.0425  142.8371  165.7207 C.ar    1  UNL1       -0.0051
     17 C         139.3084  144.1149  165.4404 C.ar    1  UNL1        0.0002
     18 C         138.8822  144.4433  164.0403 C.ar    1  UNL1        0.0375
     19 C         139.1900  143.4939  162.9204 C.ar    1  UNL1        0.1490
     20 C         139.9240  142.2162  163.2007 C.ar    1  UNL1        0.0912
     21 CL        140.2318  141.2669  162.0809 Cl      1  UNL1       -0.0791
     22 C         140.3503  141.8878  164.6009 C.ar    1  UNL1        0.0115
     23 O         138.7637  143.8223  161.5203 O.3     1  UNL1       -0.4727
     24 C         139.7849  144.2389  160.5036 C.3     1  UNL1        0.2273
     25 C         140.9661  145.0637  160.9215 C.3     1  UNL1        0.1481
     26 N         142.1764  144.3980  161.5063 N.am    1  UNL1       -0.2260
     27 C         142.7317  144.6283  162.8805 C.2     1  UNL1        0.2319
     28 O         142.1742  145.5645  163.9113 O.2     1  UNL1       -0.2745
     29 C         143.9424  143.7578  163.0431 C.3     1  UNL1        0.0953
     30 C         144.1354  142.9896  161.7692 C.3     1  UNL1        0.0953
     31 C         143.0439  143.3853  160.8194 C.2     1  UNL1        0.2319
     32 O         142.8535  142.8604  159.4273 O.2     1  UNL1       -0.2745
     33 C         139.4840  140.3005  168.0718 C.3     1  UNL1        0.0726
     34 C         138.6335  139.4851  167.1435 C.3     1  UNL1        0.0160
     35 C         138.1175  139.2052  165.7631 C.3     1  UNL1        0.0014
     36 C         137.6765  138.3527  166.9158 C.3     1  UNL1        0.0014
@<TRIPOS>UNITY_ATOM_ATTR
12 1
charge -1
@<TRIPOS>BOND
     1    12    13   ar
     2    13    14   ar
     3    13    11    1
     4     2    11    1
     5     2     3    1
     6     3     4   ar
     7     4     5   ar
     8     5     6   ar
     9     6     7    1
    10     6     8   ar
    11     8     9    1
    12     8    10   ar
    13     2     1    1
    14     1    15    1
    15    15    16    1
    16    16    17   ar
    17    17    18   ar
    18    18    19   ar
    19    19    23    1
    20    23    24    1
    21    24    25    1
    22    25    26    1
    23    26    27   am
    24    27    28    2
    25    27    29    1
    26    29    30    1
    27    30    31    1
    28    31    32    2
    29    19    20   ar
    30    20    21    1
    31    20    22   ar
    32     1    33    1
    33    33    34    1
    34    34    35    1
    35    35    36    1
    36    10     3   ar
    37    22    16   ar
    38    36    34    1
    39    31    26   am
@<TRIPOS>MOLECULE
*****
 36 39 0 0 0
SMALL
GASTEIGER

@<TRIPOS>ATOM
      1 N         140.6973  141.6023  167.2300 N.3     1  UNL1       -0.2663
      2 C         139.6946  140.4890  167.1593 C.3     1  UNL1        0.0860
      3 C         139.2861  139.9310  165.8281 C.ar    1  UNL1       -0.0051
      4 C         139.8396  138.6164  165.3641 C.ar    1  UNL1       -0.0020
      5 C         139.4311  138.0586  164.0330 C.ar    1  UNL1        0.0134
      6 C         138.4691  138.8154  163.1659 C.ar    1  UNL1        0.0850
      7 CL        138.0606  138.2575  161.8347 Cl      1  UNL1       -0.0799
      8 C         137.9156  140.1300  163.6299 C.ar    1  UNL1        0.1503
      9 F         136.9536  140.8868  162.7628 F       1  UNL1       -0.2033
     10 C         138.3241  140.6878  164.9610 C.ar    1  UNL1        0.0276
     11 C         139.1005  139.9335  168.4195 C.3     1  UNL1        0.0622
     12 O         138.9638  141.4693  170.5107 O.co2   1  UNL1       -0.5491
     13 C         139.6358  140.3623  169.7536 C.2     1  UNL1        0.0520
     14 O         140.8429  139.6842  170.3305 O.co2   1  UNL1       -0.5491
     15 C         142.1629  141.2889  167.2939 C.3     1  UNL1        0.0994
     16 C         143.0073  141.3965  166.0589 C.ar    1  UNL1       -0.0051
     17 C         143.5584  142.7275  165.6407 C.ar    1  UNL1        0.0002
     18 C         144.4028  142.8351  164.4057 C.ar    1  UNL1        0.0375
     19 C         144.6962  141.6117  163.5888 C.ar    1  UNL1        0.1490
     20 C         144.1452  140.2807  164.0070 C.ar    1  UNL1        0.0912
     21 CL        144.4386  139.0574  163.1901 Cl      1  UNL1       -0.0791
     22 C         143.3007  140.1731  165.2420 C.ar    1  UNL1        0.0115
     23 O         145.5407  141.7193  162.3537 O.3     1  UNL1       -0.4727
     24 C         144.9788  142.3486  161.1135 C.3     1  UNL1        0.2273
     25 C         143.5074  142.2693  160.8328 C.3     1  UNL1        0.1481
     26 N         142.8591  140.9369  160.5998 N.am    1  UNL1       -0.2260
     27 C         143.2574  139.9323  159.5595 C.2     1  UNL1        0.2319
     28 O         144.3740  140.0839  158.5694 O.2     1  UNL1       -0.2745
     29 C         142.3431  138.7496  159.6831 C.3     1  UNL1        0.0953
     30 C         141.3797  139.0232  160.7998 C.3     1  UNL1        0.0953
     31 C         141.6986  140.3750  161.3664 C.2     1  UNL1        0.2319
     32 O         140.9827  141.0469  162.5004 O.2     1  UNL1       -0.2745
     33 C         140.2345  143.0291  167.2370 C.3     1  UNL1        0.0726
     34 C         139.8594  143.7022  165.9500 C.3     1  UNL1        0.0160
     35 C         138.9400  144.5956  165.1712 C.3     1  UNL1        0.0014
     36 C         140.1290  143.9746  164.4999 C.3     1  UNL1        0.0014
@<TRIPOS>UNITY_ATOM_ATTR
12 1
charge -1
@<TRIPOS>BOND
     1    12    13   ar
     2    13    14   ar
     3    13    11    1
     4     2    11    1
     5     2     3    1
     6     3     4   ar
     7     4     5   ar
     8     5     6   ar
     9     6     7    1
    10     6     8   ar
    11     8     9    1
    12     8    10   ar
    13     2     1    1
    14     1    15    1
    15    15    16    1
    16    16    17   ar
    17    17    18   ar
    18    18    19   ar
    19    19    23    1
    20    23    24    1
    21    24    25    1
    22    25    26    1
    23    26    27   am
    24    27    28    2
    25    27    29    1
    26    29    30    1
    27    30    31    1
    28    31    32    2
    29    19    20   ar
    30    20    21    1
    31    20    22   ar
    32     1    33    1
    33    33    34    1
    34    34    35    1
    35    35    36    1
    36    10     3   ar
    37    22    16   ar
    38    36    34    1
    39    31    26   am
@<TRIPOS>MOLECULE
*****
 36 39 0 0 0
SMALL
GASTEIGER

@<TRIPOS>ATOM
      1 N         141.1512  140.5293  167.7450 N.3     1  UNL1       -0.2663
      2 C         139.7423  140.0722  167.5081 C.3     1  UNL1        0.0860
      3 C         139.2626  139.8135  166.1106 C.ar    1  UNL1       -0.0051
      4 C         139.4512  138.4604  165.4913 C.ar    1  UNL1       -0.0020
      5 C         138.9715  138.2018  164.0939 C.ar    1  UNL1        0.0134
      6 C         138.3034  139.2963  163.3156 C.ar    1  UNL1        0.0850
      7 CL        137.8237  139.0376  161.9180 Cl      1  UNL1       -0.0799
      8 C         138.1148  140.6494  163.9348 C.ar    1  UNL1        0.1503
      9 F         137.4467  141.7439  163.1566 F       1  UNL1       -0.2033
     10 C         138.5945  140.9080  165.3323 C.ar    1  UNL1        0.0276
     11 C         138.8131  139.8739  168.6688 C.3     1  UNL1        0.0622
     12 O         139.1933  141.8545  170.3066 O.co2   1  UNL1       -0.5491
     13 C         139.1927  140.3805  170.0287 C.2     1  UNL1        0.0520
     14 O         139.5718  139.4131  171.1105 O.co2   1  UNL1       -0.5491
     15 C         141.4947  141.9857  167.6407 C.3     1  UNL1        0.0994
     16 C         142.0595  142.5335  166.3636 C.ar    1  UNL1       -0.0051
     17 C         143.4831  142.2456  165.9888 C.ar    1  UNL1        0.0002
     18 C         144.0479  142.7934  164.7117 C.ar    1  UNL1        0.0375
     19 C         143.1890  143.6291  163.8094 C.ar    1  UNL1        0.1490
     20 C         141.7654  143.9170  164.1843 C.ar    1  UNL1        0.0912
     21 CL        140.9066  144.7527  163.2821 Cl      1  UNL1       -0.0791
     22 C         141.2007  143.3692  165.4614 C.ar    1  UNL1        0.0115
     23 O         143.7537  144.1769  162.5323 O.3     1  UNL1       -0.4727
     24 C         144.4153  143.2570  161.5494 C.3     1  UNL1        0.2273
     25 C         143.5989  142.5813  160.4878 C.3     1  UNL1        0.1481
     26 N         142.1127  142.7796  160.4448 N.am    1  UNL1       -0.2260
     27 C         141.0843  141.8736  161.0543 C.2     1  UNL1        0.2319
     28 O         141.3615  140.6102  161.8139 O.2     1  UNL1       -0.2745
     29 C         139.7300  142.4528  160.7709 C.3     1  UNL1        0.0953
     30 C         139.9214  143.7168  159.9861 C.3     1  UNL1        0.0953
     31 C         141.3940  143.9187  159.7846 C.2     1  UNL1        0.2319
     32 O         142.0353  145.0595  159.0516 O.2     1  UNL1       -0.2745
     33 C         142.2165  139.5299  168.0860 C.3     1  UNL1        0.0726
     34 C         142.9683  138.8321  166.9916 C.3     1  UNL1        0.0160
     35 C         144.1099  137.9664  166.5473 C.3     1  UNL1        0.0014
     36 C         143.1288  138.4890  165.5402 C.3     1  UNL1        0.0014
@<TRIPOS>UNITY_ATOM_ATTR
12 1
charge -1
@<TRIPOS>BOND
     1    12    13   ar
     2    13    14   ar
     3    13    11    1
     4     2    11    1
     5     2     3    1
     6     3     4   ar
     7     4     5   ar
     8     5     6   ar
     9     6     7    1
    10     6     8   ar
    11     8     9    1
    12     8    10   ar
    13     2     1    1
    14     1    15    1
    15    15    16    1
    16    16    17   ar
    17    17    18   ar
    18    18    19   ar
    19    19    23    1
    20    23    24    1
    21    24    25    1
    22    25    26    1
    23    26    27   am
    24    27    28    2
    25    27    29    1
    26    29    30    1
    27    30    31    1
    28    31    32    2
    29    19    20   ar
    30    20    21    1
    31    20    22   ar
    32     1    33    1
    33    33    34    1
    34    34    35    1
    35    35    36    1
    36    10     3   ar
    37    22    16   ar
    38    36    34    1
    39    31    26   am
@<TRIPOS>MOLECULE
*****
 36 39 0 0 0
SMALL
GASTEIGER

@<TRIPOS>ATOM
      1 N         139.2062  139.0668  164.9985 N.3     1  UNL1       -0.2663
      2 C         140.4177  139.3533  165.8353 C.3     1  UNL1        0.0860
      3 C         140.3112  140.2650  167.0217 C.ar    1  UNL1       -0.0051
      4 C         140.9751  141.6099  166.9961 C.ar    1  UNL1       -0.0020
      5 C         140.8686  142.5215  168.1825 C.ar    1  UNL1        0.0134
      6 C         140.0983  142.0883  169.3945 C.ar    1  UNL1        0.0850
      7 CL        139.9918  143.0000  170.5809 Cl      1  UNL1       -0.0799
      8 C         139.4344  140.7435  169.4201 C.ar    1  UNL1        0.1503
      9 F         138.6641  140.3103  170.6321 F       1  UNL1       -0.2033
     10 C         139.5409  139.8319  168.2337 C.ar    1  UNL1        0.0276
     11 C         141.7356  138.7282  165.4857 C.3     1  UNL1        0.0622
     12 O         143.2821  138.6589  167.5723 O.co2   1  UNL1       -0.5491
     13 C         142.9843  139.1658  166.1923 C.2     1  UNL1        0.0520
     14 O         143.9352  140.1104  165.5189 O.co2   1  UNL1       -0.5491
     15 C         138.0322  139.9999  165.0343 C.3     1  UNL1        0.0994
     16 C         138.0964  141.3139  164.3136 C.ar    1  UNL1       -0.0051
     17 C         137.7512  141.3873  162.8556 C.ar    1  UNL1        0.0002
     18 C         137.8153  142.7013  162.1350 C.ar    1  UNL1        0.0375
     19 C         138.2246  143.9418  162.8723 C.ar    1  UNL1        0.1490
     20 C         138.5697  143.8684  164.3301 C.ar    1  UNL1        0.0912
     21 CL        138.9789  145.1090  165.0673 Cl      1  UNL1       -0.0791
     22 C         138.5056  142.5545  165.0508 C.ar    1  UNL1        0.0115
     23 O         138.2887  145.2558  162.1516 O.3     1  UNL1       -0.4727
     24 C         139.6187  145.8655  161.8205 C.3     1  UNL1        0.2273
     25 C         140.7028  145.0200  161.2205 C.3     1  UNL1        0.1481
     26 N         141.3622  143.9521  162.0419 N.am    1  UNL1       -0.2260
     27 C         141.3866  142.4859  161.7262 C.2     1  UNL1        0.2319
     28 O         140.7557  141.8302  160.5337 O.2     1  UNL1       -0.2745
     29 C         142.1525  141.7905  162.8123 C.3     1  UNL1        0.0953
     30 C         142.6016  142.8270  163.7993 C.3     1  UNL1        0.0953
     31 C         142.1132  144.1629  163.3231 C.2     1  UNL1        0.2319
     32 O         142.3365  145.4786  164.0080 O.2     1  UNL1       -0.2745
     33 C         139.1686  137.8473  164.1260 C.3     1  UNL1        0.0726
     34 C         138.8856  137.9830  162.6592 C.3     1  UNL1        0.0160
     35 C         139.3766  138.1353  161.2501 C.3     1  UNL1        0.0014
     36 C         137.9042  138.0657  161.5278 C.3     1  UNL1        0.0014
@<TRIPOS>UNITY_ATOM_ATTR
12 1
charge -1
@<TRIPOS>BOND
     1    12    13   ar
     2    13    14   ar
     3    13    11    1
     4     2    11    1
     5     2     3    1
     6     3     4   ar
     7     4     5   ar
     8     5     6   ar
     9     6     7    1
    10     6     8   ar
    11     8     9    1
    12     8    10   ar
    13     2     1    1
    14     1    15    1
    15    15    16    1
    16    16    17   ar
    17    17    18   ar
    18    18    19   ar
    19    19    23    1
    20    23    24    1
    21    24    25    1
    22    25    26    1
    23    26    27   am
    24    27    28    2
    25    27    29    1
    26    29    30    1
    27    30    31    1
    28    31    32    2
    29    19    20   ar
    30    20    21    1
    31    20    22   ar
    32     1    33    1
    33    33    34    1
    34    34    35    1
    35    35    36    1
    36    10     3   ar
    37    22    16   ar
    38    36    34    1
    39    31    26   am
