@<TRIPOS>MOLECULE
*****
 33 37 0 0 0
SMALL
GASTEIGER

@<TRIPOS>ATOM
      1 C         140.2329  138.0459  162.2475 C.3     1  UNL1        0.1375
      2 F         139.8903  138.1125  160.7887 F       1  UNL1       -0.2399
      3 C         140.0764  137.8312  163.7238 C.3     1  UNL1        0.0541
      4 C         141.2381  138.0663  164.6431 C.3     1  UNL1        0.0961
      5 N         142.5563  138.5160  164.0863 N.am    1  UNL1       -0.2791
      6 C         143.7179  138.7510  165.0057 C.2     1  UNL1        0.2301
      7 O         145.0361  139.2008  164.4489 O.2     1  UNL1       -0.2745
      8 C         142.7128  138.7308  162.6100 C.3     1  UNL1        0.0961
      9 C         141.5511  138.4957  161.6907 C.3     1  UNL1        0.0541
     10 C         138.7958  137.6193  162.2977 C.3     1  UNL1        0.0374
     11 C         137.7208  138.5464  161.8129 C.3     1  UNL1        0.0291
     12 O         138.5772  145.6088  161.9591 O.2     1  UNL1       -0.2449
     13 C         138.2696  144.4123  162.8100 C.2     1  UNL1        0.3413
     14 O         137.9974  144.4259  164.2850 O.3     1  UNL1       -0.4404
     15 C         137.7397  143.0142  164.7218 C.3     1  UNL1        0.2356
     16 C         137.8526  142.1282  163.5167 C.ar    1  UNL1        0.0272
     17 C         137.6995  140.6463  163.3427 C.ar    1  UNL1       -0.0047
     18 C         137.8739  140.0284  161.9870 C.ar    1  UNL1       -0.0223
     19 C         138.2014  140.8925  160.8055 C.ar    1  UNL1       -0.0041
     20 C         138.3544  142.3744  160.9795 C.ar    1  UNL1        0.0059
     21 C         138.1801  142.9923  162.3351 C.ar    1  UNL1        0.0751
     22 C         143.5614  138.5363  166.4820 C.3     1  UNL1        0.1116
     23 C         142.7992  139.5299  167.3077 C.ar    1  UNL1       -0.0130
     24 C         142.3595  139.1710  168.6962 C.ar    1  UNL1       -0.0022
     25 C         141.5974  140.1645  169.5220 C.ar    1  UNL1        0.0190
     26 C         141.2749  141.5171  168.9593 C.ar    1  UNL1        0.0862
     27 C         141.7146  141.8760  167.5708 C.ar    1  UNL1        0.0190
     28 C         142.4767  140.8825  166.7451 C.ar    1  UNL1       -0.0022
     29 N         140.5127  142.5106  169.7851 N.ar    1  UNL1       -0.1886
     30 C         140.5609  144.0025  169.6362 C.ar    1  UNL1        0.2258
     31 N         139.6465  144.6007  170.6638 N.ar    1  UNL1       -0.1045
     32 N         139.0332  143.4786  171.4478 N.ar    1  UNL1       -0.0222
     33 N         139.5685  142.1869  170.9047 N.ar    1  UNL1       -0.0385
@<TRIPOS>BOND
     1    12    13    2
     2    13    14    1
     3    14    15    1
     4    15    16    1
     5    16    17   ar
     6    17    18   ar
     7    18    11    1
     8    11    10    1
     9    10     1    1
    10     1     2    1
    11     1     3    1
    12     3     4    1
    13     4     5    1
    14     5     6   am
    15     6     7    2
    16     6    22    1
    17    22    23    1
    18    23    24   ar
    19    24    25   ar
    20    25    26   ar
    21    26    29    1
    22    29    30   ar
    23    30    31   ar
    24    31    32   ar
    25    32    33   ar
    26    26    27   ar
    27    27    28   ar
    28     5     8    1
    29     8     9    1
    30    18    19   ar
    31    19    20   ar
    32    20    21   ar
    33    21    13    1
    34    21    16   ar
    35     9     1    1
    36    28    23   ar
    37    33    29   ar
@<TRIPOS>MOLECULE
*****
 33 37 0 0 0
SMALL
GASTEIGER

@<TRIPOS>ATOM
      1 C         140.2803  138.4189  161.7073 C.3     1  UNL1        0.1375
      2 F         139.9924  138.6064  160.2472 F       1  UNL1       -0.2399
      3 C         140.0663  138.0927  163.1557 C.3     1  UNL1        0.0541
      4 C         141.1977  138.2311  164.1307 C.3     1  UNL1        0.0961
      5 N         142.5432  138.6957  163.6575 N.am    1  UNL1       -0.2791
      6 C         143.6745  138.8340  164.6326 C.2     1  UNL1        0.2301
      7 O         145.0199  139.2986  164.1593 O.2     1  UNL1       -0.2745
      8 C         142.7572  139.0219  162.2091 C.3     1  UNL1        0.0961
      9 C         141.6258  138.8835  161.2341 C.3     1  UNL1        0.0541
     10 C         138.8349  138.0194  161.6735 C.3     1  UNL1        0.0374
     11 C         137.7662  139.0718  161.6551 C.3     1  UNL1        0.0291
     12 O         138.6941  145.0730  165.3641 O.2     1  UNL1       -0.2449
     13 C         138.8255  144.4651  163.9991 C.2     1  UNL1        0.3413
     14 O         139.3134  145.1653  162.7655 O.3     1  UNL1       -0.4404
     15 C         139.2815  144.1833  161.6320 C.3     1  UNL1        0.2356
     16 C         138.7739  142.8763  162.1651 C.ar    1  UNL1        0.0272
     17 C         138.5319  141.5501  161.5075 C.ar    1  UNL1       -0.0047
     18 C         138.0082  140.3981  162.3127 C.ar    1  UNL1       -0.0223
     19 C         137.7264  140.5723  163.7757 C.ar    1  UNL1       -0.0041
     20 C         137.9684  141.8985  164.4334 C.ar    1  UNL1        0.0059
     21 C         138.4921  143.0505  163.6281 C.ar    1  UNL1        0.0751
     22 C         143.4605  138.5078  166.0810 C.3     1  UNL1        0.1116
     23 C         142.7289  139.4723  166.9668 C.ar    1  UNL1       -0.0130
     24 C         142.1971  140.7554  166.4004 C.ar    1  UNL1       -0.0022
     25 C         141.4655  141.7199  167.2861 C.ar    1  UNL1        0.0190
     26 C         141.2658  141.4013  168.7382 C.ar    1  UNL1        0.0862
     27 C         141.7976  140.1182  169.3045 C.ar    1  UNL1        0.0190
     28 C         142.5292  139.1537  168.4189 C.ar    1  UNL1       -0.0022
     29 N         140.5342  142.3658  169.6239 N.ar    1  UNL1       -0.1886
     30 C         140.6204  143.8620  169.5590 C.ar    1  UNL1        0.2258
     31 N         139.7275  144.4244  170.6250 N.ar    1  UNL1       -0.1045
     32 N         139.0894  143.2758  171.3487 N.ar    1  UNL1       -0.0222
     33 N         139.5880  142.0037  170.7299 N.ar    1  UNL1       -0.0385
@<TRIPOS>BOND
     1    12    13    2
     2    13    14    1
     3    14    15    1
     4    15    16    1
     5    16    17   ar
     6    17    18   ar
     7    18    11    1
     8    11    10    1
     9    10     1    1
    10     1     2    1
    11     1     3    1
    12     3     4    1
    13     4     5    1
    14     5     6   am
    15     6     7    2
    16     6    22    1
    17    22    23    1
    18    23    24   ar
    19    24    25   ar
    20    25    26   ar
    21    26    29    1
    22    29    30   ar
    23    30    31   ar
    24    31    32   ar
    25    32    33   ar
    26    26    27   ar
    27    27    28   ar
    28     5     8    1
    29     8     9    1
    30    18    19   ar
    31    19    20   ar
    32    20    21   ar
    33    21    13    1
    34    21    16   ar
    35     9     1    1
    36    28    23   ar
    37    33    29   ar
@<TRIPOS>MOLECULE
*****
 33 37 0 0 0
SMALL
GASTEIGER

@<TRIPOS>ATOM
      1 C         137.9521  142.5757  162.7146 C.3     1  UNL1        0.1375
      2 F         137.9160  142.9940  161.2746 F       1  UNL1       -0.2399
      3 C         137.9140  142.6698  164.2111 C.3     1  UNL1        0.0541
      4 C         138.0772  141.4336  165.0448 C.3     1  UNL1        0.0961
      5 N         138.2785  140.1031  164.3819 N.am    1  UNL1       -0.2791
      6 C         138.4417  138.8669  165.2156 C.2     1  UNL1        0.2301
      7 O         138.6430  137.5364  164.5528 O.2     1  UNL1       -0.2745
      8 C         138.3167  140.0089  162.8853 C.3     1  UNL1        0.0961
      9 C         138.1535  141.2452  162.0517 C.3     1  UNL1        0.0541
     10 C         137.7383  144.0514  162.8773 C.3     1  UNL1        0.0374
     11 C         138.9132  144.9839  162.8783 C.3     1  UNL1        0.0291
     12 O         145.4560  142.4281  164.0149 O.2     1  UNL1       -0.2449
     13 C         144.4691  142.7857  162.9433 C.2     1  UNL1        0.3413
     14 O         144.6864  142.6538  161.4650 O.3     1  UNL1       -0.4404
     15 C         143.4433  143.1245  160.7700 C.3     1  UNL1        0.2356
     16 C         142.4577  143.5473  161.8188 C.ar    1  UNL1        0.0272
     17 C         141.0649  144.0960  161.7242 C.ar    1  UNL1       -0.0047
     18 C         140.3061  144.4352  162.9728 C.ar    1  UNL1       -0.0223
     19 C         140.9401  144.2258  164.3160 C.ar    1  UNL1       -0.0041
     20 C         142.3330  143.6771  164.4106 C.ar    1  UNL1        0.0059
     21 C         143.0917  143.3379  163.1620 C.ar    1  UNL1        0.0751
     22 C         138.4035  138.9611  166.7122 C.3     1  UNL1        0.1116
     23 C         139.4091  139.8064  167.4363 C.ar    1  UNL1       -0.0130
     24 C         139.1574  140.2206  168.8559 C.ar    1  UNL1       -0.0022
     25 C         140.1628  141.0659  169.5800 C.ar    1  UNL1        0.0190
     26 C         141.4200  141.4970  168.8847 C.ar    1  UNL1        0.0862
     27 C         141.6717  141.0828  167.4651 C.ar    1  UNL1        0.0190
     28 C         140.6663  140.2375  166.7409 C.ar    1  UNL1       -0.0022
     29 N         142.4255  142.3423  169.6088 N.ar    1  UNL1       -0.1886
     30 C         143.9158  142.2640  169.4573 C.ar    1  UNL1        0.2258
     31 N         144.5286  143.2877  170.3665 N.ar    1  UNL1       -0.1045
     32 N         143.4170  143.9987  171.0799 N.ar    1  UNL1       -0.0222
     33 N         142.1174  143.4144  170.6116 N.ar    1  UNL1       -0.0385
@<TRIPOS>BOND
     1    12    13    2
     2    13    14    1
     3    14    15    1
     4    15    16    1
     5    16    17   ar
     6    17    18   ar
     7    18    11    1
     8    11    10    1
     9    10     1    1
    10     1     2    1
    11     1     3    1
    12     3     4    1
    13     4     5    1
    14     5     6   am
    15     6     7    2
    16     6    22    1
    17    22    23    1
    18    23    24   ar
    19    24    25   ar
    20    25    26   ar
    21    26    29    1
    22    29    30   ar
    23    30    31   ar
    24    31    32   ar
    25    32    33   ar
    26    26    27   ar
    27    27    28   ar
    28     5     8    1
    29     8     9    1
    30    18    19   ar
    31    19    20   ar
    32    20    21   ar
    33    21    13    1
    34    21    16   ar
    35     9     1    1
    36    28    23   ar
    37    33    29   ar
@<TRIPOS>MOLECULE
*****
 33 37 0 0 0
SMALL
GASTEIGER

@<TRIPOS>ATOM
      1 C         141.5107  138.5469  161.3034 C.3     1  UNL1        0.1375
      2 F         141.9750  138.5747  159.8774 F       1  UNL1       -0.2399
      3 C         141.4691  138.2168  162.7661 C.3     1  UNL1        0.0541
      4 C         140.3717  138.7669  163.6281 C.3     1  UNL1        0.0961
      5 N         139.3160  139.6471  163.0276 N.am    1  UNL1       -0.2791
      6 C         138.2187  140.1971  163.8897 C.2     1  UNL1        0.2301
      7 O         137.1629  141.0774  163.2892 O.2     1  UNL1       -0.2745
      8 C         139.3576  139.9772  161.5650 C.3     1  UNL1        0.0961
      9 C         140.4550  139.4271  160.7029 C.3     1  UNL1        0.0541
     10 C         142.7277  137.6764  161.4087 C.3     1  UNL1        0.0374
     11 C         144.0791  138.2969  161.6054 C.3     1  UNL1        0.0291
     12 O         144.8648  143.9422  165.8652 O.2     1  UNL1       -0.2449
     13 C         144.5433  143.5254  164.4606 C.2     1  UNL1        0.3413
     14 O         144.2277  144.4451  163.3184 O.3     1  UNL1       -0.4404
     15 C         143.9704  143.6039  162.1035 C.3     1  UNL1        0.2356
     16 C         144.1271  142.1643  162.4947 C.ar    1  UNL1        0.0272
     17 C         143.9930  140.8914  161.7127 C.ar    1  UNL1       -0.0047
     18 C         144.2131  139.5700  162.3875 C.ar    1  UNL1       -0.0223
     19 C         144.5672  139.5215  163.8443 C.ar    1  UNL1       -0.0041
     20 C         144.7012  140.7944  164.6263 C.ar    1  UNL1        0.0059
     21 C         144.4812  142.1158  163.9515 C.ar    1  UNL1        0.0751
     22 C         138.1770  139.8670  165.3524 C.3     1  UNL1        0.1116
     23 C         139.1492  140.5124  166.2948 C.ar    1  UNL1       -0.0130
     24 C         139.4839  139.8487  167.5977 C.ar    1  UNL1       -0.0022
     25 C         140.4561  140.4940  168.5402 C.ar    1  UNL1        0.0190
     26 C         141.0937  141.8030  168.1799 C.ar    1  UNL1        0.0862
     27 C         140.7590  142.4668  166.8770 C.ar    1  UNL1        0.0190
     28 C         139.7868  141.8214  165.9345 C.ar    1  UNL1       -0.0022
     29 N         142.0659  142.4483  169.1224 N.ar    1  UNL1       -0.1886
     30 C         143.5561  142.2782  169.1049 C.ar    1  UNL1        0.2258
     31 N         144.1299  143.1018  170.2196 N.ar    1  UNL1       -0.1045
     32 N         142.9941  143.7810  170.9260 N.ar    1  UNL1       -0.0222
     33 N         141.7187  143.3771  170.2479 N.ar    1  UNL1       -0.0385
@<TRIPOS>BOND
     1    12    13    2
     2    13    14    1
     3    14    15    1
     4    15    16    1
     5    16    17   ar
     6    17    18   ar
     7    18    11    1
     8    11    10    1
     9    10     1    1
    10     1     2    1
    11     1     3    1
    12     3     4    1
    13     4     5    1
    14     5     6   am
    15     6     7    2
    16     6    22    1
    17    22    23    1
    18    23    24   ar
    19    24    25   ar
    20    25    26   ar
    21    26    29    1
    22    29    30   ar
    23    30    31   ar
    24    31    32   ar
    25    32    33   ar
    26    26    27   ar
    27    27    28   ar
    28     5     8    1
    29     8     9    1
    30    18    19   ar
    31    19    20   ar
    32    20    21   ar
    33    21    13    1
    34    21    16   ar
    35     9     1    1
    36    28    23   ar
    37    33    29   ar
@<TRIPOS>MOLECULE
*****
 33 37 0 0 0
SMALL
GASTEIGER

@<TRIPOS>ATOM
      1 C         137.8279  143.0146  163.2670 C.3     1  UNL1        0.1375
      2 F         137.6908  144.1405  162.2854 F       1  UNL1       -0.2399
      3 C         137.8692  142.2827  164.5757 C.3     1  UNL1        0.0541
      4 C         138.1390  140.8074  164.6016 C.3     1  UNL1        0.0961
      5 N         138.3675  140.0640  163.3190 N.am    1  UNL1       -0.2791
      6 C         138.6372  138.5887  163.3450 C.2     1  UNL1        0.2301
      7 O         138.8657  137.8453  162.0623 O.2     1  UNL1       -0.2745
      8 C         138.3262  140.7959  162.0103 C.3     1  UNL1        0.0961
      9 C         138.0564  142.2712  161.9844 C.3     1  UNL1        0.0541
     10 C         137.5518  144.1490  164.2087 C.3     1  UNL1        0.0374
     11 C         138.6626  144.7237  165.0368 C.3     1  UNL1        0.0291
     12 O         145.2839  142.1667  164.5344 O.2     1  UNL1       -0.2449
     13 C         144.3042  143.1123  163.9052 C.2     1  UNL1        0.3413
     14 O         144.5562  143.9705  162.7010 O.3     1  UNL1       -0.4404
     15 C         143.3083  144.7544  162.4212 C.3     1  UNL1        0.2356
     16 C         142.2851  144.3806  163.4525 C.ar    1  UNL1        0.0272
     17 C         140.8724  144.8333  163.6748 C.ar    1  UNL1       -0.0047
     18 C         140.0754  144.2711  164.8143 C.ar    1  UNL1       -0.0223
     19 C         140.6909  143.2562  165.7315 C.ar    1  UNL1       -0.0041
     20 C         142.1036  142.8036  165.5091 C.ar    1  UNL1        0.0059
     21 C         142.9007  143.3658  164.3696 C.ar    1  UNL1        0.0751
     22 C         138.6785  137.8567  164.6536 C.3     1  UNL1        0.1116
     23 C         139.0931  138.5764  165.9027 C.ar    1  UNL1       -0.0130
     24 C         138.1058  138.7806  167.0134 C.ar    1  UNL1       -0.0022
     25 C         138.5204  139.5003  168.2624 C.ar    1  UNL1        0.0190
     26 C         139.9222  140.0158  168.4009 C.ar    1  UNL1        0.0862
     27 C         140.9095  139.8115  167.2902 C.ar    1  UNL1        0.0190
     28 C         140.4950  139.0919  166.0411 C.ar    1  UNL1       -0.0022
     29 N         140.3368  140.7354  169.6499 N.ar    1  UNL1       -0.1886
     30 C         141.6598  140.6052  170.3447 C.ar    1  UNL1        0.2258
     31 N         141.6418  141.5009  171.5477 N.ar    1  UNL1       -0.1045
     32 N         140.3076  142.1848  171.5965 N.ar    1  UNL1       -0.0222
     33 N         139.5012  141.7117  170.4237 N.ar    1  UNL1       -0.0385
@<TRIPOS>BOND
     1    12    13    2
     2    13    14    1
     3    14    15    1
     4    15    16    1
     5    16    17   ar
     6    17    18   ar
     7    18    11    1
     8    11    10    1
     9    10     1    1
    10     1     2    1
    11     1     3    1
    12     3     4    1
    13     4     5    1
    14     5     6   am
    15     6     7    2
    16     6    22    1
    17    22    23    1
    18    23    24   ar
    19    24    25   ar
    20    25    26   ar
    21    26    29    1
    22    29    30   ar
    23    30    31   ar
    24    31    32   ar
    25    32    33   ar
    26    26    27   ar
    27    27    28   ar
    28     5     8    1
    29     8     9    1
    30    18    19   ar
    31    19    20   ar
    32    20    21   ar
    33    21    13    1
    34    21    16   ar
    35     9     1    1
    36    28    23   ar
    37    33    29   ar
@<TRIPOS>MOLECULE
*****
 33 37 0 0 0
SMALL
GASTEIGER

@<TRIPOS>ATOM
      1 C         141.1370  145.0329  161.4298 C.3     1  UNL1        0.1375
      2 F         140.4102  145.3565  160.1582 F       1  UNL1       -0.2399
      3 C         141.5114  145.0477  162.8823 C.3     1  UNL1        0.0541
      4 C         142.6482  144.2006  163.3724 C.3     1  UNL1        0.0961
      5 N         143.4106  143.3388  162.4101 N.am    1  UNL1       -0.2791
      6 C         144.5473  142.4918  162.9003 C.2     1  UNL1        0.2301
      7 O         145.3098  141.6300  161.9380 O.2     1  UNL1       -0.2745
      8 C         143.0362  143.3240  160.9577 C.3     1  UNL1        0.0961
      9 C         141.8994  144.1711  160.4676 C.3     1  UNL1        0.0541
     10 C         140.1222  146.0071  161.9505 C.3     1  UNL1        0.0374
     11 C         138.7699  145.5224  162.3824 C.3     1  UNL1        0.0291
     12 O         138.0917  139.1468  165.4685 O.2     1  UNL1       -0.2449
     13 C         138.0644  139.8575  164.1479 C.2     1  UNL1        0.3413
     14 O         137.8237  139.2233  162.8101 O.3     1  UNL1       -0.4404
     15 C         137.8836  140.3011  161.7686 C.3     1  UNL1        0.2356
     16 C         138.1613  141.6015  162.4627 C.ar    1  UNL1        0.0272
     17 C         138.3269  142.9998  161.9458 C.ar    1  UNL1       -0.0047
     18 C         138.6043  144.1240  162.8993 C.ar    1  UNL1       -0.0223
     19 C         138.7161  143.8498  164.3698 C.ar    1  UNL1       -0.0041
     20 C         138.5505  142.4515  164.8868 C.ar    1  UNL1        0.0059
     21 C         138.2731  141.3274  163.9332 C.ar    1  UNL1        0.0751
     22 C         144.9217  142.5066  164.3528 C.3     1  UNL1        0.1116
     23 C         143.9548  142.0002  165.3817 C.ar    1  UNL1       -0.0130
     24 C         143.7011  142.7955  166.6280 C.ar    1  UNL1       -0.0022
     25 C         142.7342  142.2892  167.6569 C.ar    1  UNL1        0.0190
     26 C         142.0209  140.9877  167.4395 C.ar    1  UNL1        0.0862
     27 C         142.2745  140.1925  166.1932 C.ar    1  UNL1        0.0190
     28 C         143.2415  140.6987  165.1643 C.ar    1  UNL1       -0.0022
     29 N         141.0539  140.4814  168.4684 N.ar    1  UNL1       -0.1886
     30 C         141.4122  139.8912  169.8001 C.ar    1  UNL1        0.2258
     31 N         140.1387  139.5215  170.5011 N.ar    1  UNL1       -0.1045
     32 N         138.9933  139.8832  169.6026 N.ar    1  UNL1       -0.0222
     33 N         139.5589  140.4764  168.3465 N.ar    1  UNL1       -0.0385
@<TRIPOS>BOND
     1    12    13    2
     2    13    14    1
     3    14    15    1
     4    15    16    1
     5    16    17   ar
     6    17    18   ar
     7    18    11    1
     8    11    10    1
     9    10     1    1
    10     1     2    1
    11     1     3    1
    12     3     4    1
    13     4     5    1
    14     5     6   am
    15     6     7    2
    16     6    22    1
    17    22    23    1
    18    23    24   ar
    19    24    25   ar
    20    25    26   ar
    21    26    29    1
    22    29    30   ar
    23    30    31   ar
    24    31    32   ar
    25    32    33   ar
    26    26    27   ar
    27    27    28   ar
    28     5     8    1
    29     8     9    1
    30    18    19   ar
    31    19    20   ar
    32    20    21   ar
    33    21    13    1
    34    21    16   ar
    35     9     1    1
    36    28    23   ar
    37    33    29   ar
@<TRIPOS>MOLECULE
*****
 33 37 0 0 0
SMALL
GASTEIGER

@<TRIPOS>ATOM
      1 C         142.3784  141.0178  160.4738 C.3     1  UNL1        0.1375
      2 F         141.8057  141.3372  159.1248 F       1  UNL1       -0.2399
      3 C         143.2396  141.1139  161.6982 C.3     1  UNL1        0.0541
      4 C         143.0712  140.1244  162.8130 C.3     1  UNL1        0.0961
      5 N         142.0418  139.0389  162.7034 N.am    1  UNL1       -0.2791
      6 C         141.8736  138.0496  163.8182 C.2     1  UNL1        0.2301
      7 O         140.8442  136.9641  163.7086 O.2     1  UNL1       -0.2745
      8 C         141.1807  138.9429  161.4790 C.3     1  UNL1        0.0961
      9 C         141.3490  139.9323  160.3642 C.3     1  UNL1        0.0541
     10 C         143.2089  142.2142  160.1149 C.3     1  UNL1        0.0374
     11 C         142.6386  143.5939  160.2600 C.3     1  UNL1        0.0291
     12 O         138.6309  145.3270  165.8784 O.2     1  UNL1       -0.2449
     13 C         138.6023  144.6604  164.5350 C.2     1  UNL1        0.3413
     14 O         137.4029  144.0354  163.8863 O.3     1  UNL1       -0.4404
     15 C         137.8274  143.4905  162.5548 C.3     1  UNL1        0.2356
     16 C         139.2892  143.7786  162.3807 C.ar    1  UNL1        0.0272
     17 C         140.2460  143.4760  161.2658 C.ar    1  UNL1       -0.0047
     18 C         141.6817  143.8965  161.3749 C.ar    1  UNL1       -0.0223
     19 C         142.1606  144.6195  162.5987 C.ar    1  UNL1       -0.0041
     20 C         141.2038  144.9221  163.7136 C.ar    1  UNL1        0.0059
     21 C         139.7681  144.5017  163.6045 C.ar    1  UNL1        0.0751
     22 C         142.7348  138.1457  165.0427 C.3     1  UNL1        0.1116
     23 C         142.2636  138.9302  166.2312 C.ar    1  UNL1       -0.0130
     24 C         143.0544  138.9081  167.5057 C.ar    1  UNL1       -0.0022
     25 C         142.5833  139.6925  168.6942 C.ar    1  UNL1        0.0190
     26 C         141.3215  140.4990  168.6084 C.ar    1  UNL1        0.0862
     27 C         140.5307  140.5210  167.3339 C.ar    1  UNL1        0.0190
     28 C         141.0018  139.7366  166.1453 C.ar    1  UNL1       -0.0022
     29 N         140.8504  141.2834  169.7969 N.ar    1  UNL1       -0.1886
     30 C         141.2206  141.0245  171.2273 C.ar    1  UNL1        0.2258
     31 N         140.5254  142.0455  172.0783 N.ar    1  UNL1       -0.1045
     32 N         139.7255  142.9356  171.1738 N.ar    1  UNL1       -0.0222
     33 N         139.9264  142.4645  169.7640 N.ar    1  UNL1       -0.0385
@<TRIPOS>BOND
     1    12    13    2
     2    13    14    1
     3    14    15    1
     4    15    16    1
     5    16    17   ar
     6    17    18   ar
     7    18    11    1
     8    11    10    1
     9    10     1    1
    10     1     2    1
    11     1     3    1
    12     3     4    1
    13     4     5    1
    14     5     6   am
    15     6     7    2
    16     6    22    1
    17    22    23    1
    18    23    24   ar
    19    24    25   ar
    20    25    26   ar
    21    26    29    1
    22    29    30   ar
    23    30    31   ar
    24    31    32   ar
    25    32    33   ar
    26    26    27   ar
    27    27    28   ar
    28     5     8    1
    29     8     9    1
    30    18    19   ar
    31    19    20   ar
    32    20    21   ar
    33    21    13    1
    34    21    16   ar
    35     9     1    1
    36    28    23   ar
    37    33    29   ar
@<TRIPOS>MOLECULE
*****
 33 37 0 0 0
SMALL
GASTEIGER

@<TRIPOS>ATOM
      1 C         139.2318  140.0859  159.7773 C.3     1  UNL1        0.1375
      2 F         139.8816  140.3213  158.4460 F       1  UNL1       -0.2399
      3 C         138.2476  140.1937  160.9041 C.3     1  UNL1        0.0541
      4 C         138.4520  139.3951  162.1573 C.3     1  UNL1        0.0961
      5 N         139.6405  138.4888  162.2837 N.am    1  UNL1       -0.2791
      6 C         139.8449  137.6903  163.5369 C.2     1  UNL1        0.2301
      7 O         141.0334  136.7839  163.6633 O.2     1  UNL1       -0.2745
      8 C         140.6247  138.3810  161.1569 C.3     1  UNL1        0.0961
      9 C         140.4203  139.1796  159.9037 C.3     1  UNL1        0.0541
     10 C         138.2690  141.0739  159.1885 C.3     1  UNL1        0.0374
     11 C         138.6631  142.5147  159.0510 C.3     1  UNL1        0.0291
     12 O         144.1775  145.1047  162.7273 O.2     1  UNL1       -0.2449
     13 C         142.7014  144.8453  162.7880 C.2     1  UNL1        0.3413
     14 O         141.7992  145.1523  163.9464 O.3     1  UNL1       -0.4404
     15 C         140.4085  144.7301  163.5753 C.3     1  UNL1        0.2356
     16 C         140.4512  144.1621  162.1877 C.ar    1  UNL1        0.0272
     17 C         139.3828  143.5892  161.3044 C.ar    1  UNL1       -0.0047
     18 C         139.7315  143.0876  159.9344 C.ar    1  UNL1       -0.0223
     19 C         141.1486  143.1588  159.4479 C.ar    1  UNL1       -0.0041
     20 C         142.2170  143.7316  160.3312 C.ar    1  UNL1        0.0059
     21 C         141.8683  144.2333  161.7011 C.ar    1  UNL1        0.0751
     22 C         138.8606  137.7980  164.6638 C.3     1  UNL1        0.1116
     23 C         139.1681  138.6664  165.8476 C.ar    1  UNL1       -0.0130
     24 C         138.1916  138.7606  166.9824 C.ar    1  UNL1       -0.0022
     25 C         138.4990  139.6289  168.1662 C.ar    1  UNL1        0.0190
     26 C         139.7829  140.4031  168.2153 C.ar    1  UNL1        0.0862
     27 C         140.7593  140.3089  167.0805 C.ar    1  UNL1        0.0190
     28 C         140.4519  139.4406  165.8967 C.ar    1  UNL1       -0.0022
     29 N         140.0902  141.2714  169.3991 N.ar    1  UNL1       -0.1886
     30 C         140.5063  142.7118  169.3517 C.ar    1  UNL1        0.2258
     31 N         140.7088  143.1825  170.7614 N.ar    1  UNL1       -0.1045
     32 N         140.4178  142.0330  171.6802 N.ar    1  UNL1       -0.0222
     33 N         140.0355  140.8520  170.8382 N.ar    1  UNL1       -0.0385
@<TRIPOS>BOND
     1    12    13    2
     2    13    14    1
     3    14    15    1
     4    15    16    1
     5    16    17   ar
     6    17    18   ar
     7    18    11    1
     8    11    10    1
     9    10     1    1
    10     1     2    1
    11     1     3    1
    12     3     4    1
    13     4     5    1
    14     5     6   am
    15     6     7    2
    16     6    22    1
    17    22    23    1
    18    23    24   ar
    19    24    25   ar
    20    25    26   ar
    21    26    29    1
    22    29    30   ar
    23    30    31   ar
    24    31    32   ar
    25    32    33   ar
    26    26    27   ar
    27    27    28   ar
    28     5     8    1
    29     8     9    1
    30    18    19   ar
    31    19    20   ar
    32    20    21   ar
    33    21    13    1
    34    21    16   ar
    35     9     1    1
    36    28    23   ar
    37    33    29   ar
@<TRIPOS>MOLECULE
*****
 33 37 0 0 0
SMALL
GASTEIGER

@<TRIPOS>ATOM
      1 C         138.4575  139.7637  160.8104 C.3     1  UNL1        0.1375
      2 F         138.7660  139.2284  159.4436 F       1  UNL1       -0.2399
      3 C         138.0318  140.7164  161.8881 C.3     1  UNL1        0.0541
      4 C         138.0505  140.2816  163.3236 C.3     1  UNL1        0.0961
      5 N         138.4948  138.8944  163.6815 N.am    1  UNL1       -0.2791
      6 C         138.5134  138.4598  165.1170 C.2     1  UNL1        0.2301
      7 O         138.9577  137.0725  165.4749 O.2     1  UNL1       -0.2745
      8 C         138.9204  137.9417  162.6038 C.3     1  UNL1        0.0961
      9 C         138.9018  138.3765  161.1683 C.3     1  UNL1        0.0541
     10 C         138.1204  140.9650  159.9778 C.3     1  UNL1        0.0374
     11 C         139.2155  141.7629  159.3344 C.3     1  UNL1        0.0291
     12 O         145.6892  141.8094  162.2875 O.2     1  UNL1       -0.2449
     13 C         144.4086  142.5821  162.1744 C.2     1  UNL1        0.3413
     14 O         144.1112  143.8970  162.8322 O.3     1  UNL1       -0.4404
     15 C         142.7193  144.3031  162.4480 C.3     1  UNL1        0.2356
     16 C         142.1564  143.2393  161.5528 C.ar    1  UNL1        0.0272
     17 C         140.8281  143.1017  160.8697 C.ar    1  UNL1       -0.0047
     18 C         140.5439  141.9005  160.0175 C.ar    1  UNL1       -0.0223
     19 C         141.5880  140.8369  159.8484 C.ar    1  UNL1       -0.0041
     20 C         142.9163  140.9744  160.5315 C.ar    1  UNL1        0.0059
     21 C         143.2005  142.1757  161.3837 C.ar    1  UNL1        0.0751
     22 C         138.0877  139.4124  166.1946 C.3     1  UNL1        0.1116
     23 C         139.1203  140.1528  166.9918 C.ar    1  UNL1       -0.0130
     24 C         140.0430  141.1193  166.3102 C.ar    1  UNL1       -0.0022
     25 C         141.0756  141.8597  167.1073 C.ar    1  UNL1        0.0190
     26 C         141.1856  141.6337  168.5861 C.ar    1  UNL1        0.0862
     27 C         140.2629  140.6672  169.2677 C.ar    1  UNL1        0.0190
     28 C         139.2303  139.9268  168.4706 C.ar    1  UNL1       -0.0022
     29 N         142.2181  142.3741  169.3832 N.ar    1  UNL1       -0.1886
     30 C         143.7053  142.2303  169.2495 C.ar    1  UNL1        0.2258
     31 N         144.3512  143.1557  170.2376 N.ar    1  UNL1       -0.1045
     32 N         143.2633  143.8714  170.9821 N.ar    1  UNL1       -0.0222
     33 N         141.9451  143.3884  170.4541 N.ar    1  UNL1       -0.0385
@<TRIPOS>BOND
     1    12    13    2
     2    13    14    1
     3    14    15    1
     4    15    16    1
     5    16    17   ar
     6    17    18   ar
     7    18    11    1
     8    11    10    1
     9    10     1    1
    10     1     2    1
    11     1     3    1
    12     3     4    1
    13     4     5    1
    14     5     6   am
    15     6     7    2
    16     6    22    1
    17    22    23    1
    18    23    24   ar
    19    24    25   ar
    20    25    26   ar
    21    26    29    1
    22    29    30   ar
    23    30    31   ar
    24    31    32   ar
    25    32    33   ar
    26    26    27   ar
    27    27    28   ar
    28     5     8    1
    29     8     9    1
    30    18    19   ar
    31    19    20   ar
    32    20    21   ar
    33    21    13    1
    34    21    16   ar
    35     9     1    1
    36    28    23   ar
    37    33    29   ar
