@<TRIPOS>MOLECULE
*****
 28 31 0 0 0
SMALL
GASTEIGER

@<TRIPOS>ATOM
      1 C         142.5200  141.4739  165.6424 C.3     1  UNL1        0.2100
      2 C         142.7285  142.7914  164.9563 C.3     1  UNL1        0.0754
      3 C         143.9195  142.9937  164.0671 C.3     1  UNL1        0.0628
      4 C         145.1902  142.7522  163.3076 C.3     1  UNL1        0.0175
      5 C         145.6371  141.3478  163.5866 C.3     1  UNL1        0.0175
      6 C         144.6425  140.7213  164.5184 C.3     1  UNL1        0.0628
      7 C         143.5025  140.3588  165.4394 C.3     1  UNL1        0.0754
      8 N         143.5809  141.7385  164.8154 N.3     1  UNL1       -0.2712
      9 S         141.3290  141.2715  166.5316 S.O     1  UNL1        0.0474
     10 O         141.1306  142.1501  167.7310 O.co2   1  UNL1       -0.6776
     11 C         139.4296  138.3628  164.6130 C.ar    1  UNL1        0.0575
     12 C         138.3515  138.0284  165.6008 C.ar    1  UNL1        0.0048
     13 C         138.2659  138.7751  166.8990 C.ar    1  UNL1        0.0046
     14 C         139.2584  139.8561  167.2092 C.ar    1  UNL1        0.0519
     15 C         140.3365  140.1905  166.2214 C.ar    1  UNL1        0.1805
     16 C         140.4221  139.4438  164.9233 C.ar    1  UNL1        0.0564
     17 N         138.3243  137.5549  162.4049 N.am    1  UNL1       -0.3253
     18 C         139.5152  137.6161  163.3149 C.2     1  UNL1        0.2429
     19 O         140.7917  136.9305  162.9267 O.2     1  UNL1       -0.2704
     20 H         138.3805  137.0648  161.5529 H       1  UNL1        0.1453
     21 H         137.4865  138.0049  162.6596 H       1  UNL1        0.1453
     22 C         142.3900  141.5362  165.7046 C.3     1  UNL1        0.0991
     23 C         142.5840  141.1802  167.1488 C.ar    1  UNL1       -0.0061
     24 C         142.3614  139.7704  167.6101 C.ar    1  UNL1       -0.0029
     25 C         142.5554  139.4143  169.0542 C.ar    1  UNL1       -0.0003
     26 C         142.9721  140.4681  170.0370 C.ar    1  UNL1       -0.0000
     27 C         143.1948  141.8780  169.5757 C.ar    1  UNL1       -0.0003
     28 C         143.0007  142.2339  168.1315 C.ar    1  UNL1       -0.0029
@<TRIPOS>UNITY_ATOM_ATTR
9 1
charge 1
10 1
charge -1
@<TRIPOS>BOND
     1    17    18   am
     2    18    19    2
     3    18    11    1
     4    11    12   ar
     5    12    13   ar
     6    13    14   ar
     7    14    15   ar
     8    15     9    1
     9     9    10    2
    10     1     9    1
    11     1     2    1
    12     3     2    1
    13     3     4    1
    14     4     5    1
    15     6     5    1
    16     6     7    1
    17     6     8    1
    18     8    22    1
    19    22    23    1
    20    23    24   ar
    21    24    25   ar
    22    25    26   ar
    23    26    27   ar
    24    27    28   ar
    25    15    16   ar
    26    16    11   ar
    27     7     1    1
    28    28    23   ar
    29     8     3    1
    30    17    20    1
    31    17    21    1
@<TRIPOS>MOLECULE
*****
 28 31 0 0 0
SMALL
GASTEIGER

@<TRIPOS>ATOM
      1 C         142.1790  141.1122  166.5917 C.3     1  UNL1        0.2100
      2 C         141.7576  139.7801  167.1376 C.3     1  UNL1        0.0754
      3 C         142.0271  139.4386  168.5731 C.3     1  UNL1        0.0628
      4 C         142.4818  139.5281  169.9997 C.3     1  UNL1        0.0175
      5 C         143.1240  140.8690  170.1982 C.3     1  UNL1        0.0175
      6 C         143.0662  141.6083  168.8942 C.3     1  UNL1        0.0628
      7 C         142.8699  142.1027  167.4814 C.3     1  UNL1        0.0754
      8 N         142.3882  140.7242  167.8899 N.3     1  UNL1       -0.2712
      9 S         141.9095  141.4538  165.1562 S.O     1  UNL1        0.0474
     10 O         142.4936  140.6101  164.0621 O.co2   1  UNL1       -0.6776
     11 C         140.3998  144.5403  163.1703 C.ar    1  UNL1        0.0575
     12 C         139.3486  145.0094  164.1320 C.ar    1  UNL1        0.0048
     13 C         139.1511  144.2933  165.4351 C.ar    1  UNL1        0.0046
     14 C         140.0047  143.1081  165.7765 C.ar    1  UNL1        0.0519
     15 C         141.0559  142.6390  164.8148 C.ar    1  UNL1        0.1805
     16 C         141.2535  143.3551  163.5117 C.ar    1  UNL1        0.0564
     17 N         141.8878  145.1068  161.1172 N.am    1  UNL1       -0.3253
     18 C         140.5974  145.2565  161.8672 C.2     1  UNL1        0.2429
     19 O         139.5045  146.1224  161.3140 O.2     1  UNL1       -0.2704
     20 H         142.0175  145.5768  160.2619 H       1  UNL1        0.1453
     21 H         142.6051  144.5385  161.4803 H       1  UNL1        0.1453
     22 C         142.1187  141.0657  166.4544 C.3     1  UNL1        0.0991
     23 C         143.2600  141.3595  165.5263 C.ar    1  UNL1       -0.0061
     24 C         144.0162  140.2326  164.8874 C.ar    1  UNL1       -0.0029
     25 C         145.1574  140.5264  163.9593 C.ar    1  UNL1       -0.0003
     26 C         145.5423  141.9470  163.6702 C.ar    1  UNL1       -0.0000
     27 C         144.7860  143.0740  164.3091 C.ar    1  UNL1       -0.0003
     28 C         143.6448  142.7801  165.2372 C.ar    1  UNL1       -0.0029
@<TRIPOS>UNITY_ATOM_ATTR
9 1
charge 1
10 1
charge -1
@<TRIPOS>BOND
     1    17    18   am
     2    18    19    2
     3    18    11    1
     4    11    12   ar
     5    12    13   ar
     6    13    14   ar
     7    14    15   ar
     8    15     9    1
     9     9    10    2
    10     1     9    1
    11     1     2    1
    12     3     2    1
    13     3     4    1
    14     4     5    1
    15     6     5    1
    16     6     7    1
    17     6     8    1
    18     8    22    1
    19    22    23    1
    20    23    24   ar
    21    24    25   ar
    22    25    26   ar
    23    26    27   ar
    24    27    28   ar
    25    15    16   ar
    26    16    11   ar
    27     7     1    1
    28    28    23   ar
    29     8     3    1
    30    17    20    1
    31    17    21    1
@<TRIPOS>MOLECULE
*****
 28 31 0 0 0
SMALL
GASTEIGER

@<TRIPOS>ATOM
      1 C         140.6292  141.9168  165.4176 C.3     1  UNL1        0.2100
      2 C         139.5325  141.0081  164.9469 C.3     1  UNL1        0.0754
      3 C         138.4180  141.5523  164.1033 C.3     1  UNL1        0.0628
      4 C         137.5505  142.4911  163.3183 C.3     1  UNL1        0.0175
      5 C         138.1734  143.8544  163.3748 C.3     1  UNL1        0.0175
      6 C         139.4259  143.7583  164.1946 C.3     1  UNL1        0.0628
      7 C         140.6114  143.3696  165.0447 C.3     1  UNL1        0.0754
      8 N         139.5771  142.3355  164.6448 N.3     1  UNL1       -0.2712
      9 S         141.7438  141.3727  166.2613 S.O     1  UNL1        0.0474
     10 O         142.6070  140.2629  165.7387 O.co2   1  UNL1       -0.6776
     11 C         141.1380  143.1883  169.7379 C.ar    1  UNL1        0.0575
     12 C         142.4976  143.0698  170.3603 C.ar    1  UNL1        0.0048
     13 C         143.6059  142.3856  169.6163 C.ar    1  UNL1        0.0046
     14 C         143.3547  141.8199  168.2501 C.ar    1  UNL1        0.0519
     15 C         141.9951  141.9384  167.6277 C.ar    1  UNL1        0.1805
     16 C         140.8867  142.6225  168.3715 C.ar    1  UNL1        0.0564
     17 N         139.0921  143.0704  171.3348 N.am    1  UNL1       -0.3253
     18 C         140.0297  143.8725  170.4818 C.2     1  UNL1        0.2429
     19 O         139.8589  145.3588  170.3727 O.2     1  UNL1       -0.2704
     20 H         138.3646  143.5195  171.8231 H       1  UNL1        0.1453
     21 H         139.2041  142.0949  171.4064 H       1  UNL1        0.1453
     22 C         140.6916  141.7913  165.4885 C.3     1  UNL1        0.0991
     23 C         142.1126  141.9149  165.0244 C.ar    1  UNL1       -0.0061
     24 C         142.6777  140.9113  164.0634 C.ar    1  UNL1       -0.0029
     25 C         144.0987  141.0349  163.5993 C.ar    1  UNL1       -0.0003
     26 C         144.9547  142.1620  164.0963 C.ar    1  UNL1       -0.0000
     27 C         144.3896  143.1656  165.0574 C.ar    1  UNL1       -0.0003
     28 C         142.9685  143.0419  165.5214 C.ar    1  UNL1       -0.0029
@<TRIPOS>UNITY_ATOM_ATTR
9 1
charge 1
10 1
charge -1
@<TRIPOS>BOND
     1    17    18   am
     2    18    19    2
     3    18    11    1
     4    11    12   ar
     5    12    13   ar
     6    13    14   ar
     7    14    15   ar
     8    15     9    1
     9     9    10    2
    10     1     9    1
    11     1     2    1
    12     3     2    1
    13     3     4    1
    14     4     5    1
    15     6     5    1
    16     6     7    1
    17     6     8    1
    18     8    22    1
    19    22    23    1
    20    23    24   ar
    21    24    25   ar
    22    25    26   ar
    23    26    27   ar
    24    27    28   ar
    25    15    16   ar
    26    16    11   ar
    27     7     1    1
    28    28    23   ar
    29     8     3    1
    30    17    20    1
    31    17    21    1
@<TRIPOS>MOLECULE
*****
 28 31 0 0 0
SMALL
GASTEIGER

@<TRIPOS>ATOM
      1 C         140.1020  141.8622  165.3239 C.3     1  UNL1        0.2100
      2 C         140.8883  143.0057  164.7546 C.3     1  UNL1        0.0754
      3 C         140.1892  144.0873  163.9856 C.3     1  UNL1        0.0628
      4 C         139.1191  144.9010  163.3202 C.3     1  UNL1        0.0175
      5 C         137.8076  144.2050  163.5336 C.3     1  UNL1        0.0175
      6 C         138.0671  142.9612  164.3309 C.3     1  UNL1        0.0628
      7 C         138.6167  141.8003  165.1242 C.3     1  UNL1        0.0754
      8 N         139.5391  142.8885  164.6103 N.3     1  UNL1       -0.2712
      9 S         140.8011  140.7805  166.0929 S.O     1  UNL1        0.0474
     10 O         141.4383  139.6344  165.3646 O.co2   1  UNL1       -0.6776
     11 C         140.4740  142.1475  169.8042 C.ar    1  UNL1        0.0575
     12 C         140.9867  140.9738  170.5849 C.ar    1  UNL1        0.0048
     13 C         141.4375  139.7356  169.8682 C.ar    1  UNL1        0.0046
     14 C         141.3757  139.6712  168.3709 C.ar    1  UNL1        0.0519
     15 C         140.8630  140.8449  167.5902 C.ar    1  UNL1        0.1805
     16 C         140.4122  142.0831  168.3068 C.ar    1  UNL1        0.0564
     17 N         138.8528  143.3262  171.4571 N.am    1  UNL1       -0.3253
     18 C         140.0232  143.3857  170.5209 C.2     1  UNL1        0.2429
     19 O         140.7429  144.6834  170.3013 O.2     1  UNL1       -0.2704
     20 H         138.5569  144.1389  171.9275 H       1  UNL1        0.1453
     21 H         138.3804  142.4745  171.6012 H       1  UNL1        0.1453
     22 C         140.2382  141.8069  165.3792 C.3     1  UNL1        0.0991
     23 C         139.7228  140.3990  165.3305 C.ar    1  UNL1       -0.0061
     24 C         138.8678  139.8743  166.4456 C.ar    1  UNL1       -0.0029
     25 C         138.3525  138.4665  166.3969 C.ar    1  UNL1       -0.0003
     26 C         138.6922  137.5833  165.2331 C.ar    1  UNL1       -0.0000
     27 C         139.5473  138.1080  164.1179 C.ar    1  UNL1       -0.0003
     28 C         140.0626  139.5159  164.1667 C.ar    1  UNL1       -0.0029
@<TRIPOS>UNITY_ATOM_ATTR
9 1
charge 1
10 1
charge -1
@<TRIPOS>BOND
     1    17    18   am
     2    18    19    2
     3    18    11    1
     4    11    12   ar
     5    12    13   ar
     6    13    14   ar
     7    14    15   ar
     8    15     9    1
     9     9    10    2
    10     1     9    1
    11     1     2    1
    12     3     2    1
    13     3     4    1
    14     4     5    1
    15     6     5    1
    16     6     7    1
    17     6     8    1
    18     8    22    1
    19    22    23    1
    20    23    24   ar
    21    24    25   ar
    22    25    26   ar
    23    26    27   ar
    24    27    28   ar
    25    15    16   ar
    26    16    11   ar
    27     7     1    1
    28    28    23   ar
    29     8     3    1
    30    17    20    1
    31    17    21    1
@<TRIPOS>MOLECULE
*****
 28 31 0 0 0
SMALL
GASTEIGER

@<TRIPOS>ATOM
      1 C         140.1451  140.5859  164.2771 C.3     1  UNL1        0.2100
      2 C         140.9530  139.5603  163.5387 C.3     1  UNL1        0.0754
      3 C         140.2825  138.6344  162.5676 C.3     1  UNL1        0.0628
      4 C         139.2368  137.9545  161.7343 C.3     1  UNL1        0.0175
      5 C         137.9168  138.6042  162.0263 C.3     1  UNL1        0.0175
      6 C         138.1465  139.6856  163.0402 C.3     1  UNL1        0.0628
      7 C         138.6666  140.6856  164.0445 C.3     1  UNL1        0.0754
      8 N         139.6087  139.7042  163.3747 N.3     1  UNL1       -0.2712
      9 S         140.8157  141.5119  165.2483 S.O     1  UNL1        0.0474
     10 O         141.8281  142.5053  164.7604 O.co2   1  UNL1       -0.6776
     11 C         140.5150  142.5035  169.0792 C.ar    1  UNL1        0.0575
     12 C         139.7899  141.3093  169.6251 C.ar    1  UNL1        0.0048
     13 C         139.4067  140.1826  168.7120 C.ar    1  UNL1        0.0046
     14 C         139.7486  140.2501  167.2531 C.ar    1  UNL1        0.0519
     15 C         140.4737  141.4443  166.7072 C.ar    1  UNL1        0.1805
     16 C         140.8569  142.5710  167.6202 C.ar    1  UNL1        0.0564
     17 N         139.9222  144.7345  170.2713 N.am    1  UNL1       -0.3253
     18 C         140.8982  143.6302  169.9923 C.2     1  UNL1        0.2429
     19 O         142.2575  143.6525  170.6264 O.2     1  UNL1       -0.2704
     20 H         140.1737  145.4740  170.8706 H       1  UNL1        0.1453
     21 H         139.0301  144.7199  169.8552 H       1  UNL1        0.1453
     22 C         140.2792  140.6302  164.3457 C.3     1  UNL1        0.0991
     23 C         140.0846  142.1126  164.2252 C.ar    1  UNL1       -0.0061
     24 C         139.0888  142.8120  165.1023 C.ar    1  UNL1       -0.0029
     25 C         138.8941  144.2944  164.9818 C.ar    1  UNL1       -0.0003
     26 C         139.6952  145.0774  163.9843 C.ar    1  UNL1       -0.0000
     27 C         140.6910  144.3780  163.1071 C.ar    1  UNL1       -0.0003
     28 C         140.8856  142.8955  163.2277 C.ar    1  UNL1       -0.0029
@<TRIPOS>UNITY_ATOM_ATTR
9 1
charge 1
10 1
charge -1
@<TRIPOS>BOND
     1    17    18   am
     2    18    19    2
     3    18    11    1
     4    11    12   ar
     5    12    13   ar
     6    13    14   ar
     7    14    15   ar
     8    15     9    1
     9     9    10    2
    10     1     9    1
    11     1     2    1
    12     3     2    1
    13     3     4    1
    14     4     5    1
    15     6     5    1
    16     6     7    1
    17     6     8    1
    18     8    22    1
    19    22    23    1
    20    23    24   ar
    21    24    25   ar
    22    25    26   ar
    23    26    27   ar
    24    27    28   ar
    25    15    16   ar
    26    16    11   ar
    27     7     1    1
    28    28    23   ar
    29     8     3    1
    30    17    20    1
    31    17    21    1
@<TRIPOS>MOLECULE
*****
 28 31 0 0 0
SMALL
GASTEIGER

@<TRIPOS>ATOM
      1 C         142.3245  142.0911  165.6422 C.3     1  UNL1        0.2100
      2 C         143.7135  142.0713  165.0763 C.3     1  UNL1        0.0754
      3 C         144.1433  143.1316  164.1062 C.3     1  UNL1        0.0628
      4 C         144.1331  144.3363  163.2126 C.3     1  UNL1        0.0175
      5 C         142.7774  144.9713  163.3060 C.3     1  UNL1        0.0175
      6 C         141.9497  144.1591  164.2575 C.3     1  UNL1        0.0628
      7 C         141.3653  143.1712  165.2381 C.3     1  UNL1        0.0754
      8 N         142.7938  143.0221  164.7520 N.3     1  UNL1       -0.2712
      9 S         141.8947  141.0307  166.6123 S.O     1  UNL1        0.0474
     10 O         142.7496  140.7125  167.8031 O.co2   1  UNL1       -0.6776
     11 C         138.8858  139.2058  164.7778 C.ar    1  UNL1        0.0575
     12 C         138.0406  138.8043  165.9501 C.ar    1  UNL1        0.0048
     13 C         138.4801  139.1450  167.3432 C.ar    1  UNL1        0.0046
     14 C         139.7648  139.8871  167.5639 C.ar    1  UNL1        0.0519
     15 C         140.6100  140.2886  166.3916 C.ar    1  UNL1        0.1805
     16 C         140.1705  139.9480  164.9985 C.ar    1  UNL1        0.0564
     17 N         138.7061  137.4960  162.8299 N.am    1  UNL1       -0.3253
     18 C         138.4462  138.8652  163.3847 C.2     1  UNL1        0.2429
     19 O         137.7467  139.8938  162.5463 O.2     1  UNL1       -0.2704
     20 H         138.4176  137.2724  161.9155 H       1  UNL1        0.1453
     21 H         139.1652  136.8209  163.3801 H       1  UNL1        0.1453
     22 C         142.3641  141.9618  165.7221 C.3     1  UNL1        0.0991
     23 C         142.0779  142.3227  167.1496 C.ar    1  UNL1       -0.0061
     24 C         140.6857  142.6966  167.5641 C.ar    1  UNL1       -0.0029
     25 C         140.3996  143.0575  168.9916 C.ar    1  UNL1       -0.0003
     26 C         141.5057  143.0445  170.0046 C.ar    1  UNL1       -0.0000
     27 C         142.8980  142.6706  169.5902 C.ar    1  UNL1       -0.0003
     28 C         143.1841  142.3097  168.1626 C.ar    1  UNL1       -0.0029
@<TRIPOS>UNITY_ATOM_ATTR
9 1
charge 1
10 1
charge -1
@<TRIPOS>BOND
     1    17    18   am
     2    18    19    2
     3    18    11    1
     4    11    12   ar
     5    12    13   ar
     6    13    14   ar
     7    14    15   ar
     8    15     9    1
     9     9    10    2
    10     1     9    1
    11     1     2    1
    12     3     2    1
    13     3     4    1
    14     4     5    1
    15     6     5    1
    16     6     7    1
    17     6     8    1
    18     8    22    1
    19    22    23    1
    20    23    24   ar
    21    24    25   ar
    22    25    26   ar
    23    26    27   ar
    24    27    28   ar
    25    15    16   ar
    26    16    11   ar
    27     7     1    1
    28    28    23   ar
    29     8     3    1
    30    17    20    1
    31    17    21    1
@<TRIPOS>MOLECULE
*****
 28 31 0 0 0
SMALL
GASTEIGER

@<TRIPOS>ATOM
      1 C         140.9661  141.9726  165.2910 C.3     1  UNL1        0.2100
      2 C         141.7584  142.6457  164.2097 C.3     1  UNL1        0.0754
      3 C         141.2154  143.8694  163.5332 C.3     1  UNL1        0.0628
      4 C         140.3195  145.0115  163.1550 C.3     1  UNL1        0.0175
      5 C         139.0912  144.9408  164.0131 C.3     1  UNL1        0.0175
      6 C         139.2280  143.7551  164.9216 C.3     1  UNL1        0.0628
      7 C         139.6309  142.5233  165.6959 C.3     1  UNL1        0.0754
      8 N         140.5408  143.0929  164.6250 N.3     1  UNL1       -0.2712
      9 S         141.5091  140.7488  165.9675 S.O     1  UNL1        0.0474
     10 O         141.7124  139.4863  165.1835 O.co2   1  UNL1       -0.6776
     11 C         142.1730  142.1314  169.6277 C.ar    1  UNL1        0.0575
     12 C         142.5280  140.8650  170.3490 C.ar    1  UNL1        0.0048
     13 C         142.5433  139.5599  169.6098 C.ar    1  UNL1        0.0046
     14 C         142.2037  139.5212  168.1494 C.ar    1  UNL1        0.0519
     15 C         141.8487  140.7875  167.4280 C.ar    1  UNL1        0.1805
     16 C         141.8333  142.0926  168.1672 C.ar    1  UNL1        0.0564
     17 N         143.3574  143.8637  171.1595 N.am    1  UNL1       -0.3253
     18 C         142.1576  143.4365  170.3669 C.2     1  UNL1        0.2429
     19 O         140.9425  144.3144  170.3136 O.2     1  UNL1       -0.2704
     20 H         143.3473  144.7203  171.6446 H       1  UNL1        0.1453
     21 H         144.1549  143.2875  171.1945 H       1  UNL1        0.1453
     22 C         141.0838  141.8692  165.3015 C.3     1  UNL1        0.0991
     23 C         140.2347  140.6382  165.4194 C.ar    1  UNL1       -0.0061
     24 C         139.4803  140.3660  166.6870 C.ar    1  UNL1       -0.0029
     25 C         138.6313  139.1352  166.8049 C.ar    1  UNL1       -0.0003
     26 C         138.5365  138.1765  165.6551 C.ar    1  UNL1       -0.0000
     27 C         139.2909  138.4487  164.3875 C.ar    1  UNL1       -0.0003
     28 C         140.1400  139.6796  164.2697 C.ar    1  UNL1       -0.0029
@<TRIPOS>UNITY_ATOM_ATTR
9 1
charge 1
10 1
charge -1
@<TRIPOS>BOND
     1    17    18   am
     2    18    19    2
     3    18    11    1
     4    11    12   ar
     5    12    13   ar
     6    13    14   ar
     7    14    15   ar
     8    15     9    1
     9     9    10    2
    10     1     9    1
    11     1     2    1
    12     3     2    1
    13     3     4    1
    14     4     5    1
    15     6     5    1
    16     6     7    1
    17     6     8    1
    18     8    22    1
    19    22    23    1
    20    23    24   ar
    21    24    25   ar
    22    25    26   ar
    23    26    27   ar
    24    27    28   ar
    25    15    16   ar
    26    16    11   ar
    27     7     1    1
    28    28    23   ar
    29     8     3    1
    30    17    20    1
    31    17    21    1
@<TRIPOS>MOLECULE
*****
 28 31 0 0 0
SMALL
GASTEIGER

@<TRIPOS>ATOM
      1 C         141.2047  142.3039  164.9269 C.3     1  UNL1        0.2100
      2 C         140.6266  143.2498  163.9164 C.3     1  UNL1        0.0754
      3 C         141.5097  144.2556  163.2393 C.3     1  UNL1        0.0628
      4 C         142.7135  145.0541  162.8351 C.3     1  UNL1        0.0175
      5 C         143.8908  144.5426  163.6111 C.3     1  UNL1        0.0175
      6 C         143.4148  143.4280  164.4948 C.3     1  UNL1        0.0628
      7 C         142.6660  142.3639  165.2603 C.3     1  UNL1        0.0754
      8 N         141.9432  143.2506  164.2650 N.3     1  UNL1       -0.2712
      9 S         140.3216  141.2980  165.6040 S.O     1  UNL1        0.0474
     10 O         139.6295  140.2420  164.7942 O.co2   1  UNL1       -0.6776
     11 C         140.3939  142.6001  169.3522 C.ar    1  UNL1        0.0575
     12 C         139.7484  141.4488  170.0648 C.ar    1  UNL1        0.0048
     13 C         139.2940  140.2472  169.2904 C.ar    1  UNL1        0.0046
     14 C         139.4850  140.1970  167.8035 C.ar    1  UNL1        0.0519
     15 C         140.1305  141.3483  167.0909 C.ar    1  UNL1        0.1805
     16 C         140.5850  142.5499  167.8652 C.ar    1  UNL1        0.0564
     17 N         139.9145  144.9569  170.3349 N.am    1  UNL1       -0.3253
     18 C         140.8484  143.8017  170.1266 C.2     1  UNL1        0.2429
     19 O         142.2367  143.8481  170.6927 O.2     1  UNL1       -0.2704
     20 H         140.2128  145.7456  170.8431 H       1  UNL1        0.1453
     21 H         139.0033  144.9265  169.9633 H       1  UNL1        0.1453
     22 C         141.0600  142.2448  164.9421 C.3     1  UNL1        0.0991
     23 C         141.4257  140.7902  164.9199 C.ar    1  UNL1       -0.0061
     24 C         141.1006  139.9534  163.7182 C.ar    1  UNL1       -0.0029
     25 C         141.4663  138.4989  163.6959 C.ar    1  UNL1       -0.0003
     26 C         142.1570  137.8811  164.8754 C.ar    1  UNL1       -0.0000
     27 C         142.4822  138.7179  166.0772 C.ar    1  UNL1       -0.0003
     28 C         142.1164  140.1724  166.0993 C.ar    1  UNL1       -0.0029
@<TRIPOS>UNITY_ATOM_ATTR
9 1
charge 1
10 1
charge -1
@<TRIPOS>BOND
     1    17    18   am
     2    18    19    2
     3    18    11    1
     4    11    12   ar
     5    12    13   ar
     6    13    14   ar
     7    14    15   ar
     8    15     9    1
     9     9    10    2
    10     1     9    1
    11     1     2    1
    12     3     2    1
    13     3     4    1
    14     4     5    1
    15     6     5    1
    16     6     7    1
    17     6     8    1
    18     8    22    1
    19    22    23    1
    20    23    24   ar
    21    24    25   ar
    22    25    26   ar
    23    26    27   ar
    24    27    28   ar
    25    15    16   ar
    26    16    11   ar
    27     7     1    1
    28    28    23   ar
    29     8     3    1
    30    17    20    1
    31    17    21    1
@<TRIPOS>MOLECULE
*****
 28 31 0 0 0
SMALL
GASTEIGER

@<TRIPOS>ATOM
      1 C         140.1726  141.5314  165.5282 C.3     1  UNL1        0.2100
      2 C         140.0843  142.8908  166.1560 C.3     1  UNL1        0.0754
      3 C         139.3870  144.0061  165.4349 C.3     1  UNL1        0.0628
      4 C         138.6310  144.7807  164.3965 C.3     1  UNL1        0.0175
      5 C         138.3303  143.8548  163.2553 C.3     1  UNL1        0.0175
      6 C         138.9006  142.5080  163.5884 C.3     1  UNL1        0.0628
      7 C         139.5635  141.2872  164.1793 C.3     1  UNL1        0.0754
      8 N         139.5537  142.6015  164.9355 N.3     1  UNL1       -0.2712
      9 S         140.8699  140.4161  166.2493 S.O     1  UNL1        0.0474
     10 O         140.2109  139.7541  167.4230 O.co2   1  UNL1       -0.6776
     11 C         144.2965  140.2524  164.2540 C.ar    1  UNL1        0.0575
     12 C         144.9389  139.0562  164.8915 C.ar    1  UNL1        0.0048
     13 C         144.2249  138.3133  165.9817 C.ar    1  UNL1        0.0046
     14 C         142.8687  138.7666  166.4342 C.ar    1  UNL1        0.0519
     15 C         142.2263  139.9628  165.7967 C.ar    1  UNL1        0.1805
     16 C         142.9402  140.7057  164.7067 C.ar    1  UNL1        0.0564
     17 N         146.1655  141.8917  163.4993 N.am    1  UNL1       -0.3253
     18 C         145.0105  140.9953  163.1639 C.2     1  UNL1        0.2429
     19 O         144.5695  140.8417  161.7384 O.2     1  UNL1       -0.2704
     20 H         146.6341  142.3793  162.7838 H       1  UNL1        0.1453
     21 H         146.4549  141.9925  164.4348 H       1  UNL1        0.1453
     22 C         140.2510  141.4862  165.6566 C.3     1  UNL1        0.0991
     23 C         139.6426  140.1154  165.6850 C.ar    1  UNL1       -0.0061
     24 C         140.1634  139.0447  164.7726 C.ar    1  UNL1       -0.0029
     25 C         139.5551  137.6740  164.8010 C.ar    1  UNL1       -0.0003
     26 C         138.4259  137.3739  165.7417 C.ar    1  UNL1       -0.0000
     27 C         137.9051  138.4446  166.6541 C.ar    1  UNL1       -0.0003
     28 C         138.5135  139.8154  166.6256 C.ar    1  UNL1       -0.0029
@<TRIPOS>UNITY_ATOM_ATTR
9 1
charge 1
10 1
charge -1
@<TRIPOS>BOND
     1    17    18   am
     2    18    19    2
     3    18    11    1
     4    11    12   ar
     5    12    13   ar
     6    13    14   ar
     7    14    15   ar
     8    15     9    1
     9     9    10    2
    10     1     9    1
    11     1     2    1
    12     3     2    1
    13     3     4    1
    14     4     5    1
    15     6     5    1
    16     6     7    1
    17     6     8    1
    18     8    22    1
    19    22    23    1
    20    23    24   ar
    21    24    25   ar
    22    25    26   ar
    23    26    27   ar
    24    27    28   ar
    25    15    16   ar
    26    16    11   ar
    27     7     1    1
    28    28    23   ar
    29     8     3    1
    30    17    20    1
    31    17    21    1
