@<TRIPOS>MOLECULE
*****
 29 31 0 0 0
SMALL
GASTEIGER

@<TRIPOS>ATOM
      1 C         138.6572  144.9962  165.6724 C.3     1  UNL1        0.1165
      2 N         139.4052  143.8013  165.1600 N.am    1  UNL1       -0.2597
      3 C         140.1202  142.8962  166.1189 C.2     1  UNL1        0.3080
      4 O         140.0872  143.1860  167.5903 O.2     1  UNL1       -0.2523
      5 N         140.8683  141.7013  165.6065 N.am    1  UNL1       -0.2540
      6 C         140.9894  141.2863  164.1702 C.3     1  UNL1        0.1221
      7 C         141.8226  140.0401  164.1164 C.2     1  UNL1       -0.0024
      8 C         142.2163  139.6849  165.5195 C.2     1  UNL1       -0.0047
      9 C         141.6266  140.7115  166.4405 C.3     1  UNL1        0.1218
     10 C         142.1963  139.2822  162.8770 C.ar    1  UNL1        0.0271
     11 C         141.1875  139.0875  161.7842 C.ar    1  UNL1        0.0316
     12 C         141.5613  138.3296  160.5449 C.ar    1  UNL1        0.1403
     13 F         140.5525  138.1348  159.4519 F       1  UNL1       -0.2042
     14 C         142.9438  137.7664  160.3985 C.ar    1  UNL1        0.0319
     15 C         143.9526  137.9612  161.4913 C.ar    1  UNL1        0.0319
     16 C         143.5789  138.7190  162.7306 C.ar    1  UNL1        0.1400
     17 F         144.5877  138.9138  163.8236 F       1  UNL1       -0.2042
     18 C         141.7699  140.7429  167.9333 C.ar    1  UNL1        0.0029
     19 C         142.9465  141.4310  168.5595 C.ar    1  UNL1       -0.0021
     20 C         143.0898  141.4625  170.0522 C.ar    1  UNL1        0.0028
     21 C         142.0565  140.8057  170.9188 C.ar    1  UNL1        0.0366
     22 C         140.8799  140.1176  170.2927 C.ar    1  UNL1        0.1334
     23 O         139.8466  139.4609  171.1594 O.3     1  UNL1       -0.5055
     24 C         140.7366  140.0862  168.7999 C.ar    1  UNL1        0.0343
     25 H         139.9362  139.4805  172.0919 H       1  UNL1        0.2922
     26 C         139.4383  143.5115  163.6886 C.3     1  UNL1        0.1267
     27 C         138.1571  143.4102  162.9153 C.3     1  UNL1        0.1586
     28 O         137.4532  144.6555  162.4638 O.3     1  UNL1       -0.3802
     29 H         137.1371  145.1470  163.2380 H       1  UNL1        0.2105
@<TRIPOS>BOND
     1     1     2    1
     2     2    26    1
     3    26    27    1
     4    27    28    1
     5     2     3   am
     6     3     4    2
     7     3     5   am
     8     5     6    1
     9     6     7    1
    10     7    10    1
    11    10    11   ar
    12    11    12   ar
    13    12    13    1
    14    12    14   ar
    15    14    15   ar
    16    15    16   ar
    17    16    17    1
    18     7     8    2
    19     8     9    1
    20     9    18    1
    21    18    19   ar
    22    19    20   ar
    23    20    21   ar
    24    21    22   ar
    25    22    23    1
    26    22    24   ar
    27     9     5    1
    28    24    18   ar
    29    16    10   ar
    30    28    29    1
    31    23    25    1
@<TRIPOS>MOLECULE
*****
 29 31 0 0 0
SMALL
GASTEIGER

@<TRIPOS>ATOM
      1 C         138.4478  137.8829  165.8526 C.3     1  UNL1        0.1165
      2 N         138.9962  139.0937  165.1574 N.am    1  UNL1       -0.2597
      3 C         139.7336  140.1387  165.9410 C.2     1  UNL1        0.3080
      4 O         139.9226  139.9731  167.4198 O.2     1  UNL1       -0.2523
      5 N         140.2819  141.3495  165.2458 N.am    1  UNL1       -0.2540
      6 C         140.1715  141.6504  163.7805 C.3     1  UNL1        0.1221
      7 C         140.8583  142.9589  163.5229 C.2     1  UNL1       -0.0024
      8 C         141.3932  143.4666  164.8291 C.2     1  UNL1       -0.0047
      9 C         141.0370  142.4720  165.8939 C.3     1  UNL1        0.1218
     10 C         140.9876  143.6400  162.1927 C.ar    1  UNL1        0.0271
     11 C         141.9877  143.1447  161.1905 C.ar    1  UNL1        0.0316
     12 C         142.1169  143.8257  159.8603 C.ar    1  UNL1        0.1403
     13 F         143.1171  143.3304  158.8581 F       1  UNL1       -0.2042
     14 C         141.2460  145.0021  159.5323 C.ar    1  UNL1        0.0319
     15 C         140.2459  145.4974  160.5345 C.ar    1  UNL1        0.0319
     16 C         140.1167  144.8164  161.8647 C.ar    1  UNL1        0.1400
     17 F         139.1165  145.3117  162.8669 F       1  UNL1       -0.2042
     18 C         141.3762  142.5808  167.3510 C.ar    1  UNL1        0.0029
     19 C         142.7221  142.1372  167.8429 C.ar    1  UNL1       -0.0021
     20 C         143.0614  142.2459  169.2998 C.ar    1  UNL1        0.0028
     21 C         142.0547  142.7982  170.2651 C.ar    1  UNL1        0.0366
     22 C         140.7089  143.2418  169.7733 C.ar    1  UNL1        0.1334
     23 O         139.7023  143.7940  170.7386 O.3     1  UNL1       -0.5055
     24 C         140.3696  143.1330  168.3162 C.ar    1  UNL1        0.0343
     25 H         139.9142  143.8619  171.6488 H       1  UNL1        0.2922
     26 C         138.8071  139.2593  163.6786 C.3     1  UNL1        0.1267
     27 C         139.0016  138.0882  162.7619 C.3     1  UNL1        0.1586
     28 O         137.8862  137.6478  161.8608 O.3     1  UNL1       -0.3802
     29 H         137.1501  137.3137  162.3970 H       1  UNL1        0.2105
@<TRIPOS>BOND
     1     1     2    1
     2     2    26    1
     3    26    27    1
     4    27    28    1
     5     2     3   am
     6     3     4    2
     7     3     5   am
     8     5     6    1
     9     6     7    1
    10     7    10    1
    11    10    11   ar
    12    11    12   ar
    13    12    13    1
    14    12    14   ar
    15    14    15   ar
    16    15    16   ar
    17    16    17    1
    18     7     8    2
    19     8     9    1
    20     9    18    1
    21    18    19   ar
    22    19    20   ar
    23    20    21   ar
    24    21    22   ar
    25    22    23    1
    26    22    24   ar
    27     9     5    1
    28    24    18   ar
    29    16    10   ar
    30    28    29    1
    31    23    25    1
@<TRIPOS>MOLECULE
*****
 29 31 0 0 0
SMALL
GASTEIGER

@<TRIPOS>ATOM
      1 C         138.0171  137.5163  166.2158 C.3     1  UNL1        0.1165
      2 N         138.6044  138.7749  165.6492 N.am    1  UNL1       -0.2597
      3 C         139.3448  139.7254  166.5426 C.2     1  UNL1        0.3080
      4 O         139.4979  139.4174  168.0027 O.2     1  UNL1       -0.2523
      5 N         139.9321  140.9840  165.9760 N.am    1  UNL1       -0.2540
      6 C         139.8600  141.4237  164.5437 C.3     1  UNL1        0.1221
      7 C         140.5779  142.7353  164.4247 C.2     1  UNL1       -0.0024
      8 C         141.0938  143.1063  165.7835 C.2     1  UNL1       -0.0047
      9 C         140.6947  142.0239  166.7422 C.3     1  UNL1        0.1218
     10 C         140.7498  143.5355  163.1676 C.ar    1  UNL1        0.0271
     11 C         139.9748  144.8051  162.9749 C.ar    1  UNL1        0.0316
     12 C         140.1467  145.6052  161.7178 C.ar    1  UNL1        0.1403
     13 F         139.3716  146.8749  161.5250 F       1  UNL1       -0.2042
     14 C         141.0937  145.1357  160.6535 C.ar    1  UNL1        0.0319
     15 C         141.8687  143.8660  160.8463 C.ar    1  UNL1        0.0319
     16 C         141.6968  143.0659  162.1033 C.ar    1  UNL1        0.1400
     17 F         142.4719  141.7962  162.2961 F       1  UNL1       -0.2042
     18 C         141.0039  141.9878  168.2096 C.ar    1  UNL1        0.0029
     19 C         140.1246  142.7199  169.1796 C.ar    1  UNL1       -0.0021
     20 C         140.4336  142.6838  170.6469 C.ar    1  UNL1        0.0028
     21 C         141.6222  141.9156  171.1442 C.ar    1  UNL1        0.0366
     22 C         142.5015  141.1835  170.1744 C.ar    1  UNL1        0.1334
     23 O         143.6900  140.4154  170.6717 O.3     1  UNL1       -0.5055
     24 C         142.1923  141.2196  168.7070 C.ar    1  UNL1        0.0343
     25 H         143.8831  140.3928  171.5883 H       1  UNL1        0.2922
     26 C         138.4513  139.0829  164.1891 C.3     1  UNL1        0.1267
     27 C         138.9500  138.1110  163.1613 C.3     1  UNL1        0.1586
     28 O         138.0134  137.5741  162.1199 O.3     1  UNL1       -0.3802
     29 H         137.3358  137.0263  162.5461 H       1  UNL1        0.2105
@<TRIPOS>BOND
     1     1     2    1
     2     2    26    1
     3    26    27    1
     4    27    28    1
     5     2     3   am
     6     3     4    2
     7     3     5   am
     8     5     6    1
     9     6     7    1
    10     7    10    1
    11    10    11   ar
    12    11    12   ar
    13    12    13    1
    14    12    14   ar
    15    14    15   ar
    16    15    16   ar
    17    16    17    1
    18     7     8    2
    19     8     9    1
    20     9    18    1
    21    18    19   ar
    22    19    20   ar
    23    20    21   ar
    24    21    22   ar
    25    22    23    1
    26    22    24   ar
    27     9     5    1
    28    24    18   ar
    29    16    10   ar
    30    28    29    1
    31    23    25    1
@<TRIPOS>MOLECULE
*****
 29 31 0 0 0
SMALL
GASTEIGER

@<TRIPOS>ATOM
      1 C         138.4788  138.3484  161.9923 C.3     1  UNL1        0.1165
      2 N         139.0411  138.9663  163.2381 N.am    1  UNL1       -0.2597
      3 C         139.3546  140.4328  163.2722 C.2     1  UNL1        0.3080
      4 O         139.1058  141.2813  162.0605 O.2     1  UNL1       -0.2523
      5 N         139.9169  141.0507  164.5180 N.am    1  UNL1       -0.2540
      6 C         140.2171  140.3326  165.8002 C.3     1  UNL1        0.1221
      7 C         140.7634  141.3333  166.7750 C.2     1  UNL1       -0.0024
      8 C         140.8008  142.6699  166.0952 C.2     1  UNL1       -0.0047
      9 C         140.2776  142.4953  164.7003 C.3     1  UNL1        0.1218
     10 C         141.1964  141.0476  168.1825 C.ar    1  UNL1        0.0271
     11 C         141.8137  139.7237  168.5232 C.ar    1  UNL1        0.0316
     12 C         142.2466  139.4380  169.9306 C.ar    1  UNL1        0.1403
     13 F         142.8640  138.1140  170.2713 F       1  UNL1       -0.2042
     14 C         142.0621  140.4762  170.9974 C.ar    1  UNL1        0.0319
     15 C         141.4448  141.8001  170.6568 C.ar    1  UNL1        0.0319
     16 C         141.0119  142.0858  169.2493 C.ar    1  UNL1        0.1400
     17 F         140.3945  143.4098  168.9086 F       1  UNL1       -0.2042
     18 C         140.1394  143.5755  163.6688 C.ar    1  UNL1        0.0029
     19 C         138.9006  144.4203  163.6288 C.ar    1  UNL1       -0.0021
     20 C         138.7624  145.5005  162.5973 C.ar    1  UNL1        0.0028
     21 C         139.8631  145.7359  161.6058 C.ar    1  UNL1        0.0366
     22 C         141.1019  144.8911  161.6457 C.ar    1  UNL1        0.1334
     23 O         142.2025  145.1265  160.6542 O.3     1  UNL1       -0.5055
     24 C         141.2401  143.8109  162.6772 C.ar    1  UNL1        0.0343
     25 H         142.1162  145.8013  160.0098 H       1  UNL1        0.2922
     26 C         139.2899  138.1177  164.4497 C.3     1  UNL1        0.1267
     27 C         140.4778  137.2030  164.4936 C.3     1  UNL1        0.1586
     28 O         141.1127  136.7366  163.2172 O.3     1  UNL1       -0.3802
     29 H         140.4900  136.1710  162.7341 H       1  UNL1        0.2105
@<TRIPOS>BOND
     1     1     2    1
     2     2    26    1
     3    26    27    1
     4    27    28    1
     5     2     3   am
     6     3     4    2
     7     3     5   am
     8     5     6    1
     9     6     7    1
    10     7    10    1
    11    10    11   ar
    12    11    12   ar
    13    12    13    1
    14    12    14   ar
    15    14    15   ar
    16    15    16   ar
    17    16    17    1
    18     7     8    2
    19     8     9    1
    20     9    18    1
    21    18    19   ar
    22    19    20   ar
    23    20    21   ar
    24    21    22   ar
    25    22    23    1
    26    22    24   ar
    27     9     5    1
    28    24    18   ar
    29    16    10   ar
    30    28    29    1
    31    23    25    1
@<TRIPOS>MOLECULE
*****
 29 31 0 0 0
SMALL
GASTEIGER

@<TRIPOS>ATOM
      1 C         145.0215  143.7408  165.6815 C.3     1  UNL1        0.1165
      2 N         143.7840  143.0422  165.2014 N.am    1  UNL1       -0.2597
      3 C         142.8284  142.4446  166.1912 C.2     1  UNL1        0.3080
      4 O         143.1103  142.5456  167.6610 O.2     1  UNL1       -0.2523
      5 N         141.5908  141.7461  165.7112 N.am    1  UNL1       -0.2540
      6 C         141.1781  141.5674  164.2802 C.3     1  UNL1        0.1221
      7 C         139.8809  140.8144  164.2625 C.2     1  UNL1       -0.0024
      8 C         139.4919  140.5277  165.6825 C.2     1  UNL1       -0.0047
      9 C         140.5487  141.1035  166.5778 C.3     1  UNL1        0.1218
     10 C         139.1083  140.4178  163.0394 C.ar    1  UNL1        0.0271
     11 C         138.9526  141.3856  161.9040 C.ar    1  UNL1        0.0316
     12 C         138.1801  140.9889  160.6810 C.ar    1  UNL1        0.1403
     13 F         138.0244  141.9568  159.5456 F       1  UNL1       -0.2042
     14 C         137.5632  139.6245  160.5933 C.ar    1  UNL1        0.0319
     15 C         137.7189  138.6566  161.7287 C.ar    1  UNL1        0.0319
     16 C         138.4914  139.0533  162.9517 C.ar    1  UNL1        0.1400
     17 F         138.6472  138.0854  164.0871 F       1  UNL1       -0.2042
     18 C         140.5611  141.0467  168.0767 C.ar    1  UNL1        0.0029
     19 C         141.1954  139.8822  168.7779 C.ar    1  UNL1       -0.0021
     20 C         141.2080  139.8253  170.2767 C.ar    1  UNL1        0.0028
     21 C         140.5861  140.9330  171.0744 C.ar    1  UNL1        0.0366
     22 C         139.9518  142.0975  170.3733 C.ar    1  UNL1        0.1334
     23 O         139.3299  143.2051  171.1711 O.3     1  UNL1       -0.5055
     24 C         139.9393  142.1543  168.8745 C.ar    1  UNL1        0.0343
     25 H         139.3377  143.1696  172.1074 H       1  UNL1        0.2922
     26 C         143.5021  142.9412  163.7316 C.3     1  UNL1        0.1267
     27 C         144.2220  143.8359  162.7667 C.3     1  UNL1        0.1586
     28 O         143.7633  145.2505  162.5703 O.3     1  UNL1       -0.3802
     29 H         142.8817  145.2513  162.1657 H       1  UNL1        0.2105
@<TRIPOS>BOND
     1     1     2    1
     2     2    26    1
     3    26    27    1
     4    27    28    1
     5     2     3   am
     6     3     4    2
     7     3     5   am
     8     5     6    1
     9     6     7    1
    10     7    10    1
    11    10    11   ar
    12    11    12   ar
    13    12    13    1
    14    12    14   ar
    15    14    15   ar
    16    15    16   ar
    17    16    17    1
    18     7     8    2
    19     8     9    1
    20     9    18    1
    21    18    19   ar
    22    19    20   ar
    23    20    21   ar
    24    21    22   ar
    25    22    23    1
    26    22    24   ar
    27     9     5    1
    28    24    18   ar
    29    16    10   ar
    30    28    29    1
    31    23    25    1
@<TRIPOS>MOLECULE
*****
 29 31 0 0 0
SMALL
GASTEIGER

@<TRIPOS>ATOM
      1 C         139.5043  144.6925  161.9768 C.3     1  UNL1        0.1165
      2 N         139.9076  143.9910  163.2398 N.am    1  UNL1       -0.2597
      3 C         140.4825  142.6069  163.1781 C.2     1  UNL1        0.3080
      4 O         140.6542  141.9244  161.8534 O.2     1  UNL1       -0.2523
      5 N         140.8858  141.9054  164.4411 N.am    1  UNL1       -0.2540
      6 C         140.7742  142.4582  165.8310 C.3     1  UNL1        0.1221
      7 C         141.2909  141.4223  166.7848 C.2     1  UNL1       -0.0024
      8 C         141.7220  140.2292  165.9845 C.2     1  UNL1       -0.0047
      9 C         141.4716  140.5277  164.5359 C.3     1  UNL1        0.1218
     10 C         141.3638  141.5560  168.2771 C.ar    1  UNL1        0.0271
     11 C         142.3368  142.5143  168.8976 C.ar    1  UNL1        0.0316
     12 C         142.4096  142.6481  170.3898 C.ar    1  UNL1        0.1403
     13 F         143.3826  143.6064  171.0104 F       1  UNL1       -0.2042
     14 C         141.5095  141.8235  171.2616 C.ar    1  UNL1        0.0319
     15 C         140.5366  140.8652  170.6411 C.ar    1  UNL1        0.0319
     16 C         140.4637  140.7315  169.1489 C.ar    1  UNL1        0.1400
     17 F         139.4908  139.7731  168.5283 F       1  UNL1       -0.2042
     18 C         141.7570  139.6097  163.3844 C.ar    1  UNL1        0.0029
     19 C         140.6957  138.6703  162.8933 C.ar    1  UNL1       -0.0021
     20 C         140.9809  137.7524  161.7419 C.ar    1  UNL1        0.0028
     21 C         142.3276  137.7739  161.0815 C.ar    1  UNL1        0.0366
     22 C         143.3889  138.7132  161.5725 C.ar    1  UNL1        0.1334
     23 O         144.7355  138.7347  160.9121 O.3     1  UNL1       -0.5055
     24 C         143.1036  139.6312  162.7240 C.ar    1  UNL1        0.0343
     25 H         144.9138  138.1613  160.1928 H       1  UNL1        0.2922
     26 C         139.7359  144.6735  164.5645 C.3     1  UNL1        0.1267
     27 C         138.3667  144.8265  165.1574 C.3     1  UNL1        0.1586
     28 O         138.1812  145.6069  166.4249 O.3     1  UNL1       -0.3802
     29 H         138.6240  145.1472  167.1553 H       1  UNL1        0.2105
@<TRIPOS>BOND
     1     1     2    1
     2     2    26    1
     3    26    27    1
     4    27    28    1
     5     2     3   am
     6     3     4    2
     7     3     5   am
     8     5     6    1
     9     6     7    1
    10     7    10    1
    11    10    11   ar
    12    11    12   ar
    13    12    13    1
    14    12    14   ar
    15    14    15   ar
    16    15    16   ar
    17    16    17    1
    18     7     8    2
    19     8     9    1
    20     9    18    1
    21    18    19   ar
    22    19    20   ar
    23    20    21   ar
    24    21    22   ar
    25    22    23    1
    26    22    24   ar
    27     9     5    1
    28    24    18   ar
    29    16    10   ar
    30    28    29    1
    31    23    25    1
@<TRIPOS>MOLECULE
*****
 29 31 0 0 0
SMALL
GASTEIGER

@<TRIPOS>ATOM
      1 C         144.6305  141.2072  162.3417 C.3     1  UNL1        0.1165
      2 N         143.7584  141.2970  163.5588 N.am    1  UNL1       -0.2597
      3 C         142.3712  140.7271  163.5312 C.2     1  UNL1        0.3080
      4 O         141.8560  140.0673  162.2864 O.2     1  UNL1       -0.2523
      5 N         141.4991  140.8169  164.7483 N.am    1  UNL1       -0.2540
      6 C         141.8750  141.4440  166.0580 C.3     1  UNL1        0.1221
      7 C         140.7062  141.3100  166.9886 C.2     1  UNL1       -0.0024
      8 C         139.6079  140.6001  166.2540 C.2     1  UNL1       -0.0047
      9 C         140.0979  140.2953  164.8694 C.3     1  UNL1        0.1218
     10 C         140.6463  141.8000  168.4051 C.ar    1  UNL1        0.0271
     11 C         140.4192  143.2557  168.6862 C.ar    1  UNL1        0.0316
     12 C         140.3593  143.7456  170.1026 C.ar    1  UNL1        0.1403
     13 F         140.1321  145.2015  170.3838 F       1  UNL1       -0.2042
     14 C         140.5265  142.7797  171.2380 C.ar    1  UNL1        0.0319
     15 C         140.7537  141.3239  170.9569 C.ar    1  UNL1        0.0319
     16 C         140.8136  140.8341  169.5405 C.ar    1  UNL1        0.1400
     17 F         141.0407  139.3782  169.2593 F       1  UNL1       -0.2042
     18 C         139.3227  139.5924  163.7947 C.ar    1  UNL1        0.0029
     19 C         139.3613  138.0960  163.6988 C.ar    1  UNL1       -0.0021
     20 C         138.5862  137.3930  162.6241 C.ar    1  UNL1        0.0028
     21 C         137.7725  138.1866  161.6452 C.ar    1  UNL1        0.0366
     22 C         137.7339  139.6830  161.7410 C.ar    1  UNL1        0.1334
     23 O         136.9203  140.4765  160.7621 O.3     1  UNL1       -0.5055
     24 C         138.5091  140.3859  162.8158 C.ar    1  UNL1        0.0343
     25 H         136.4361  140.0374  160.0907 H       1  UNL1        0.2922
     26 C         144.2736  141.9567  164.8036 C.3     1  UNL1        0.1267
     27 C         144.5702  143.4270  164.8053 C.3     1  UNL1        0.1586
     28 O         145.1718  144.0693  166.0200 O.3     1  UNL1       -0.3802
     29 H         144.5383  144.0306  166.7535 H       1  UNL1        0.2105
@<TRIPOS>BOND
     1     1     2    1
     2     2    26    1
     3    26    27    1
     4    27    28    1
     5     2     3   am
     6     3     4    2
     7     3     5   am
     8     5     6    1
     9     6     7    1
    10     7    10    1
    11    10    11   ar
    12    11    12   ar
    13    12    13    1
    14    12    14   ar
    15    14    15   ar
    16    15    16   ar
    17    16    17    1
    18     7     8    2
    19     8     9    1
    20     9    18    1
    21    18    19   ar
    22    19    20   ar
    23    20    21   ar
    24    21    22   ar
    25    22    23    1
    26    22    24   ar
    27     9     5    1
    28    24    18   ar
    29    16    10   ar
    30    28    29    1
    31    23    25    1
@<TRIPOS>MOLECULE
*****
 29 31 0 0 0
SMALL
GASTEIGER

@<TRIPOS>ATOM
      1 C         143.7265  143.1265  160.9482 C.3     1  UNL1        0.1165
      2 N         143.3478  142.8657  162.3759 N.am    1  UNL1       -0.2597
      3 C         142.2614  141.8823  162.6961 C.2     1  UNL1        0.3080
      4 O         141.5536  141.1596  161.5885 O.2     1  UNL1       -0.2523
      5 N         141.8828  141.6215  164.1239 N.am    1  UNL1       -0.2540
      6 C         142.4983  142.2651  165.3309 C.3     1  UNL1        0.1221
      7 C         141.8180  141.7126  166.5484 C.2     1  UNL1       -0.0024
      8 C         140.7822  140.7276  166.0938 C.2     1  UNL1       -0.0047
      9 C         140.8221  140.6713  164.5954 C.3     1  UNL1        0.1218
     10 C         142.1206  142.0806  167.9708 C.ar    1  UNL1        0.0271
     11 C         143.5400  142.3022  168.4024 C.ar    1  UNL1        0.0316
     12 C         143.8425  142.6702  169.8247 C.ar    1  UNL1        0.1403
     13 F         145.2619  142.8918  170.2565 F       1  UNL1       -0.2042
     14 C         142.7257  142.8166  170.8154 C.ar    1  UNL1        0.0319
     15 C         141.3064  142.5951  170.3837 C.ar    1  UNL1        0.0319
     16 C         141.0039  142.2271  168.9614 C.ar    1  UNL1        0.1400
     17 F         139.5845  142.0055  168.5296 F       1  UNL1       -0.2042
     18 C         139.9539  139.8151  163.7218 C.ar    1  UNL1        0.0029
     19 C         140.2177  138.3423  163.6152 C.ar    1  UNL1       -0.0021
     20 C         139.3496  137.4861  162.7417 C.ar    1  UNL1        0.0028
     21 C         138.2176  138.1027  161.9746 C.ar    1  UNL1        0.0366
     22 C         137.9537  139.5754  162.0811 C.ar    1  UNL1        0.1334
     23 O         136.8217  140.1920  161.3141 O.3     1  UNL1       -0.5055
     24 C         138.8219  140.4316  162.9547 C.ar    1  UNL1        0.0343
     25 H         136.2794  139.6571  160.7684 H       1  UNL1        0.2922
     26 C         144.0557  143.5884  163.4836 C.3     1  UNL1        0.1267
     27 C         143.7863  145.0447  163.7211 C.3     1  UNL1        0.1586
     28 O         142.5605  145.6851  163.1404 O.3     1  UNL1       -0.3802
     29 H         142.6247  145.6877  162.1726 H       1  UNL1        0.2105
@<TRIPOS>BOND
     1     1     2    1
     2     2    26    1
     3    26    27    1
     4    27    28    1
     5     2     3   am
     6     3     4    2
     7     3     5   am
     8     5     6    1
     9     6     7    1
    10     7    10    1
    11    10    11   ar
    12    11    12   ar
    13    12    13    1
    14    12    14   ar
    15    14    15   ar
    16    15    16   ar
    17    16    17    1
    18     7     8    2
    19     8     9    1
    20     9    18    1
    21    18    19   ar
    22    19    20   ar
    23    20    21   ar
    24    21    22   ar
    25    22    23    1
    26    22    24   ar
    27     9     5    1
    28    24    18   ar
    29    16    10   ar
    30    28    29    1
    31    23    25    1
@<TRIPOS>MOLECULE
*****
 29 31 0 0 0
SMALL
GASTEIGER

@<TRIPOS>ATOM
      1 C         138.5272  144.9211  165.7211 C.3     1  UNL1        0.1165
      2 N         139.3843  143.8618  165.0940 N.am    1  UNL1       -0.2597
      3 C         140.2633  143.0022  165.9534 C.2     1  UNL1        0.3080
      4 O         140.2851  143.2019  167.4399 O.2     1  UNL1       -0.2523
      5 N         141.1204  141.9430  165.3263 N.am    1  UNL1       -0.2540
      6 C         141.2035  141.6286  163.8620 C.3     1  UNL1        0.1221
      7 C         142.1794  140.5034  163.6841 C.2     1  UNL1       -0.0024
      8 C         142.6995  140.1224  165.0385 C.2     1  UNL1       -0.0047
      9 C         142.0450  141.0121  166.0534 C.3     1  UNL1        0.1218
     10 C         142.5672  139.8704  162.3806 C.ar    1  UNL1        0.0271
     11 C         143.2191  140.6953  161.3108 C.ar    1  UNL1        0.0316
     12 C         143.6068  140.0623  160.0074 C.ar    1  UNL1        0.1403
     13 F         144.2589  140.8872  158.9376 F       1  UNL1       -0.2042
     14 C         143.3426  138.6043  159.7738 C.ar    1  UNL1        0.0319
     15 C         142.6906  137.7794  160.8435 C.ar    1  UNL1        0.0319
     16 C         142.3029  138.4125  162.1469 C.ar    1  UNL1        0.1400
     17 F         141.6508  137.5875  163.2168 F       1  UNL1       -0.2042
     18 C         142.2748  140.9770  167.5353 C.ar    1  UNL1        0.0029
     19 C         141.5442  139.9792  168.3842 C.ar    1  UNL1       -0.0021
     20 C         141.7739  139.9441  169.8660 C.ar    1  UNL1        0.0028
     21 C         142.7342  140.9070  170.4990 C.ar    1  UNL1        0.0366
     22 C         143.4648  141.9048  169.6503 C.ar    1  UNL1        0.1334
     23 O         144.4251  142.8676  170.2833 O.3     1  UNL1       -0.5055
     24 C         143.2351  141.9398  168.1684 C.ar    1  UNL1        0.0343
     25 H         144.5686  142.8457  171.2090 H       1  UNL1        0.2922
     26 C         139.3625  143.6621  163.6075 C.3     1  UNL1        0.1267
     27 C         139.8534  144.7488  162.6976 C.3     1  UNL1        0.1586
     28 O         140.7868  145.8002  163.2205 O.3     1  UNL1       -0.3802
     29 H         140.3280  146.3389  163.8839 H       1  UNL1        0.2105
@<TRIPOS>BOND
     1     1     2    1
     2     2    26    1
     3    26    27    1
     4    27    28    1
     5     2     3   am
     6     3     4    2
     7     3     5   am
     8     5     6    1
     9     6     7    1
    10     7    10    1
    11    10    11   ar
    12    11    12   ar
    13    12    13    1
    14    12    14   ar
    15    14    15   ar
    16    15    16   ar
    17    16    17    1
    18     7     8    2
    19     8     9    1
    20     9    18    1
    21    18    19   ar
    22    19    20   ar
    23    20    21   ar
    24    21    22   ar
    25    22    23    1
    26    22    24   ar
    27     9     5    1
    28    24    18   ar
    29    16    10   ar
    30    28    29    1
    31    23    25    1
