@<TRIPOS>MOLECULE
*****
 26 28 0 0 0
SMALL
GASTEIGER

@<TRIPOS>ATOM
      1 C         141.0501  143.8750  164.0515 C.ar    1  UNL1       -0.0078
      2 C         142.4080  143.2890  164.3016 C.ar    1  UNL1        0.0001
      3 C         142.6953  142.5874  165.5959 C.ar    1  UNL1        0.0366
      4 C         141.6246  142.4719  166.6401 C.ar    1  UNL1        0.1390
      5 C         140.2667  143.0579  166.3900 C.ar    1  UNL1        0.0366
      6 C         139.9795  143.7595  165.0957 C.ar    1  UNL1        0.0001
      7 C         140.8553  145.2528  160.4281 C.3     1  UNL1        0.1317
      8 C         139.7859  146.0598  161.1029 C.3     1  UNL1        0.0268
      9 C         139.7288  145.6419  162.5423 C.3     1  UNL1        0.0221
     10 C         140.7628  144.5766  162.7572 C.3     1  UNL1        0.0772
     11 N         141.4590  144.3362  161.4505 N.3     1  UNL1       -0.2890
     12 H         141.3313  143.3657  161.1636 H       1  UNL1        0.1239
     13 C         140.7130  146.0607  156.5451 C.3     1  UNL1        0.1107
     14 N         140.3170  145.9674  157.9889 N.am    1  UNL1       -0.3016
     15 C         141.2514  145.3461  158.9843 C.2     1  UNL1        0.2368
     16 O         142.5819  144.8182  158.5359 O.2     1  UNL1       -0.2737
     17 H         139.4437  146.3139  158.2831 H       1  UNL1        0.1495
     18 O         141.9119  141.7702  167.9344 O.3     1  UNL1       -0.4706
     19 C         141.6458  140.2999  168.0657 C.3     1  UNL1        0.2342
     20 C         140.6274  139.6404  167.1837 C.ar    1  UNL1        0.0486
     21 C         141.0457  139.0385  165.8751 C.ar    1  UNL1        0.0016
     22 C         140.0272  138.3790  164.9932 C.ar    1  UNL1       -0.0001
     23 C         138.5904  138.3213  165.4200 C.ar    1  UNL1        0.0023
     24 C         138.1720  138.9232  166.7287 C.ar    1  UNL1        0.0294
     25 C         139.1905  139.5827  167.6105 C.ar    1  UNL1        0.1396
     26 F         138.7722  140.1847  168.9193 F       1  UNL1       -0.2044
@<TRIPOS>BOND
     1    13    14    1
     2    14    15   am
     3    15    16    2
     4     7    15    1
     5     7     8    1
     6     8     9    1
     7     9    10    1
     8    10     1    1
     9     1     2   ar
    10     2     3   ar
    11     3     4   ar
    12     4    18    1
    13    18    19    1
    14    19    20    1
    15    20    21   ar
    16    21    22   ar
    17    22    23   ar
    18    23    24   ar
    19    24    25   ar
    20    25    26    1
    21     4     5   ar
    22     5     6   ar
    23    10    11    1
    24    11     7    1
    25     6     1   ar
    26    25    20   ar
    27    14    17    1
    28    11    12    1
@<TRIPOS>MOLECULE
*****
 26 28 0 0 0
SMALL
GASTEIGER

@<TRIPOS>ATOM
      1 C         140.9083  139.7262  167.1192 C.ar    1  UNL1       -0.0078
      2 C         139.4116  139.8096  167.1722 C.ar    1  UNL1        0.0001
      3 C         138.5915  139.3135  166.0184 C.ar    1  UNL1        0.0366
      4 C         139.2681  138.7339  164.8116 C.ar    1  UNL1        0.1390
      5 C         140.7648  138.6505  164.7587 C.ar    1  UNL1        0.0366
      6 C         141.5849  139.1466  165.9124 C.ar    1  UNL1        0.0001
      7 C         143.0092  141.6697  169.7412 C.3     1  UNL1        0.1317
      8 C         142.9718  140.3018  170.3559 C.3     1  UNL1        0.0268
      9 C         142.1803  139.4074  169.4485 C.3     1  UNL1        0.0221
     10 C         141.7284  140.2223  168.2730 C.3     1  UNL1        0.0772
     11 N         142.2407  141.6205  168.4540 N.3     1  UNL1       -0.2890
     12 H         141.4581  142.2735  168.4928 H       1  UNL1        0.1239
     13 C         145.8769  144.1742  170.8608 C.3     1  UNL1        0.1107
     14 N         145.1915  142.9689  170.2886 N.am    1  UNL1       -0.3016
     15 C         143.6946  142.8750  170.3134 C.2     1  UNL1        0.2368
     16 O         142.8832  143.9865  170.9103 O.2     1  UNL1       -0.2737
     17 H         145.7240  142.2394  169.8969 H       1  UNL1        0.1495
     18 O         138.4479  138.2378  163.6578 O.3     1  UNL1       -0.4706
     19 C         138.2165  139.1208  162.4676 C.3     1  UNL1        0.2342
     20 C         138.4532  140.5983  162.5725 C.ar    1  UNL1        0.0486
     21 C         137.3836  141.4917  163.1272 C.ar    1  UNL1        0.0016
     22 C         137.6204  142.9692  163.2320 C.ar    1  UNL1       -0.0001
     23 C         138.9268  143.5532  162.7823 C.ar    1  UNL1        0.0023
     24 C         139.9964  142.6598  162.2276 C.ar    1  UNL1        0.0294
     25 C         139.7596  141.1823  162.1227 C.ar    1  UNL1        0.1396
     26 F         140.8292  140.2888  161.5680 F       1  UNL1       -0.2044
@<TRIPOS>BOND
     1    13    14    1
     2    14    15   am
     3    15    16    2
     4     7    15    1
     5     7     8    1
     6     8     9    1
     7     9    10    1
     8    10     1    1
     9     1     2   ar
    10     2     3   ar
    11     3     4   ar
    12     4    18    1
    13    18    19    1
    14    19    20    1
    15    20    21   ar
    16    21    22   ar
    17    22    23   ar
    18    23    24   ar
    19    24    25   ar
    20    25    26    1
    21     4     5   ar
    22     5     6   ar
    23    10    11    1
    24    11     7    1
    25     6     1   ar
    26    25    20   ar
    27    14    17    1
    28    11    12    1
@<TRIPOS>MOLECULE
*****
 26 28 0 0 0
SMALL
GASTEIGER

@<TRIPOS>ATOM
      1 C         141.3499  142.2825  164.4264 C.ar    1  UNL1       -0.0078
      2 C         142.7308  142.3332  165.0099 C.ar    1  UNL1        0.0001
      3 C         143.1534  141.3142  166.0263 C.ar    1  UNL1        0.0366
      4 C         142.1951  140.2445  166.4591 C.ar    1  UNL1        0.1390
      5 C         140.8142  140.1937  165.8756 C.ar    1  UNL1        0.0366
      6 C         140.3916  141.2127  164.8593 C.ar    1  UNL1        0.0001
      7 C         140.6123  144.4708  161.3067 C.3     1  UNL1        0.1317
      8 C         139.9412  145.2684  162.3855 C.3     1  UNL1        0.0268
      9 C         140.1359  144.5457  163.6854 C.3     1  UNL1        0.0221
     10 C         140.9272  143.3015  163.4101 C.3     1  UNL1        0.0772
     11 N         141.2216  143.2553  161.9400 N.3     1  UNL1       -0.2890
     12 H         140.8165  142.4126  161.5322 H       1  UNL1        0.1239
     13 C         141.9079  145.9081  157.8418 C.3     1  UNL1        0.1107
     14 N         141.8554  145.5525  159.2981 N.am    1  UNL1       -0.3016
     15 C         140.6647  144.8265  159.8504 C.2     1  UNL1        0.2368
     16 O         139.5265  144.4561  158.9464 O.2     1  UNL1       -0.2737
     17 H         142.6025  145.7956  159.8914 H       1  UNL1        0.1495
     18 O         142.6178  139.2254  167.4755 O.3     1  UNL1       -0.4706
     19 C         142.4844  139.5258  168.9390 C.3     1  UNL1        0.2342
     20 C         141.7170  140.7332  169.3900 C.ar    1  UNL1        0.0486
     21 C         140.2467  140.6270  169.6671 C.ar    1  UNL1        0.0016
     22 C         139.4794  141.8343  170.1181 C.ar    1  UNL1       -0.0001
     23 C         140.1823  143.1480  170.2919 C.ar    1  UNL1        0.0023
     24 C         141.6526  143.2542  170.0147 C.ar    1  UNL1        0.0294
     25 C         142.4200  142.0469  169.5638 C.ar    1  UNL1        0.1396
     26 F         143.8904  142.1531  169.2866 F       1  UNL1       -0.2044
@<TRIPOS>BOND
     1    13    14    1
     2    14    15   am
     3    15    16    2
     4     7    15    1
     5     7     8    1
     6     8     9    1
     7     9    10    1
     8    10     1    1
     9     1     2   ar
    10     2     3   ar
    11     3     4   ar
    12     4    18    1
    13    18    19    1
    14    19    20    1
    15    20    21   ar
    16    21    22   ar
    17    22    23   ar
    18    23    24   ar
    19    24    25   ar
    20    25    26    1
    21     4     5   ar
    22     5     6   ar
    23    10    11    1
    24    11     7    1
    25     6     1   ar
    26    25    20   ar
    27    14    17    1
    28    11    12    1
@<TRIPOS>MOLECULE
*****
 26 28 0 0 0
SMALL
GASTEIGER

@<TRIPOS>ATOM
      1 C         139.9990  142.8587  163.7798 C.ar    1  UNL1       -0.0078
      2 C         138.6637  142.2822  164.1466 C.ar    1  UNL1        0.0001
      3 C         138.5684  141.2273  165.2086 C.ar    1  UNL1        0.0366
      4 C         139.8085  140.7488  165.9039 C.ar    1  UNL1        0.1390
      5 C         141.1438  141.3253  165.5371 C.ar    1  UNL1        0.0366
      6 C         141.2390  142.3803  164.4751 C.ar    1  UNL1        0.0001
      7 C         140.5676  145.0437  160.6226 C.3     1  UNL1        0.1317
      8 C         139.9143  146.0306  161.5442 C.3     1  UNL1        0.0268
      9 C         139.6218  145.3322  162.8391 C.3     1  UNL1        0.0221
     10 C         140.0943  143.9137  162.7177 C.3     1  UNL1        0.0772
     11 N         140.6788  143.7354  161.3478 N.3     1  UNL1       -0.2890
     12 H         140.1634  143.0147  160.8427 H       1  UNL1        0.1239
     13 C         140.5324  146.1535  156.8124 C.3     1  UNL1        0.1107
     14 N         140.0713  145.8800  158.2134 N.am    1  UNL1       -0.3016
     15 C         141.0287  145.3172  159.2216 C.2     1  UNL1        0.2368
     16 O         142.4471  145.0278  158.8289 O.2     1  UNL1       -0.2737
     17 H         139.1403  146.0699  158.4711 H       1  UNL1        0.1495
     18 O         139.7132  139.6938  166.9660 O.3     1  UNL1       -0.4706
     19 C         139.6628  140.0881  168.4124 C.3     1  UNL1        0.2342
     20 C         140.7045  141.0089  168.9755 C.ar    1  UNL1        0.0486
     21 C         140.3435  142.4199  169.3340 C.ar    1  UNL1        0.0016
     22 C         141.3852  143.3406  169.8970 C.ar    1  UNL1       -0.0001
     23 C         142.7879  142.8503  170.1016 C.ar    1  UNL1        0.0023
     24 C         143.1490  141.4393  169.7431 C.ar    1  UNL1        0.0294
     25 C         142.1073  140.5186  169.1800 C.ar    1  UNL1        0.1396
     26 F         142.4683  139.1075  168.8215 F       1  UNL1       -0.2044
@<TRIPOS>BOND
     1    13    14    1
     2    14    15   am
     3    15    16    2
     4     7    15    1
     5     7     8    1
     6     8     9    1
     7     9    10    1
     8    10     1    1
     9     1     2   ar
    10     2     3   ar
    11     3     4   ar
    12     4    18    1
    13    18    19    1
    14    19    20    1
    15    20    21   ar
    16    21    22   ar
    17    22    23   ar
    18    23    24   ar
    19    24    25   ar
    20    25    26    1
    21     4     5   ar
    22     5     6   ar
    23    10    11    1
    24    11     7    1
    25     6     1   ar
    26    25    20   ar
    27    14    17    1
    28    11    12    1
@<TRIPOS>MOLECULE
*****
 26 28 0 0 0
SMALL
GASTEIGER

@<TRIPOS>ATOM
      1 C         143.2020  139.7009  159.7658 C.ar    1  UNL1       -0.0078
      2 C         141.7264  139.5473  159.5442 C.ar    1  UNL1        0.0001
      3 C         140.9189  138.6695  160.4538 C.ar    1  UNL1        0.0366
      4 C         141.5870  137.9453  161.5848 C.ar    1  UNL1        0.1390
      5 C         143.0625  138.0989  161.8063 C.ar    1  UNL1        0.0366
      6 C         143.8700  138.9767  160.8968 C.ar    1  UNL1        0.0001
      7 C         145.3986  141.3398  157.0172 C.3     1  UNL1        0.1317
      8 C         145.1060  142.5197  157.8961 C.3     1  UNL1        0.0268
      9 C         144.2475  142.0493  159.0327 C.3     1  UNL1        0.0221
     10 C         144.0096  140.5788  158.8562 C.3     1  UNL1        0.0772
     11 N         144.7210  140.1404  157.6106 N.3     1  UNL1       -0.2890
     12 H         144.0495  139.7575  156.9450 H       1  UNL1        0.1239
     13 C         148.5091  141.7115  154.5806 C.3     1  UNL1        0.1107
     14 N         147.6837  141.6948  155.8330 N.am    1  UNL1       -0.3016
     15 C         146.2240  141.3566  155.7648 C.2     1  UNL1        0.2368
     16 O         145.5896  141.0351  154.4441 O.2     1  UNL1       -0.2737
     17 H         148.1001  141.9058  156.6998 H       1  UNL1        0.1495
     18 O         140.7794  137.0674  162.4944 O.3     1  UNL1       -0.4706
     19 C         141.1151  136.9895  163.9542 C.3     1  UNL1        0.2342
     20 C         140.3907  137.8600  164.9379 C.ar    1  UNL1        0.0486
     21 C         138.9231  137.6621  165.1760 C.ar    1  UNL1        0.0016
     22 C         138.1988  138.5326  166.1596 C.ar    1  UNL1       -0.0001
     23 C         138.9422  139.6010  166.9052 C.ar    1  UNL1        0.0023
     24 C         140.4099  139.7989  166.6671 C.ar    1  UNL1        0.0294
     25 C         141.1341  138.9284  165.6835 C.ar    1  UNL1        0.1396
     26 F         142.6019  139.1263  165.4453 F       1  UNL1       -0.2044
@<TRIPOS>BOND
     1    13    14    1
     2    14    15   am
     3    15    16    2
     4     7    15    1
     5     7     8    1
     6     8     9    1
     7     9    10    1
     8    10     1    1
     9     1     2   ar
    10     2     3   ar
    11     3     4   ar
    12     4    18    1
    13    18    19    1
    14    19    20    1
    15    20    21   ar
    16    21    22   ar
    17    22    23   ar
    18    23    24   ar
    19    24    25   ar
    20    25    26    1
    21     4     5   ar
    22     5     6   ar
    23    10    11    1
    24    11     7    1
    25     6     1   ar
    26    25    20   ar
    27    14    17    1
    28    11    12    1
@<TRIPOS>MOLECULE
*****
 26 28 0 0 0
SMALL
GASTEIGER

@<TRIPOS>ATOM
      1 C         138.6741  139.3021  162.5036 C.ar    1  UNL1       -0.0078
      2 C         138.9114  138.0365  163.2729 C.ar    1  UNL1        0.0001
      3 C         138.7629  138.0271  164.7655 C.ar    1  UNL1        0.0366
      4 C         138.3771  139.2834  165.4888 C.ar    1  UNL1        0.1390
      5 C         138.1399  140.5490  164.7194 C.ar    1  UNL1        0.0366
      6 C         138.2884  140.5583  163.2268 C.ar    1  UNL1        0.0001
      7 C         139.4629  138.7003  158.7511 C.3     1  UNL1        0.1317
      8 C         138.6393  139.9518  158.6771 C.3     1  UNL1        0.0268
      9 C         138.2436  140.3295  160.0737 C.3     1  UNL1        0.0221
     10 C         138.8226  139.3115  161.0110 C.3     1  UNL1        0.0772
     11 N         139.5762  138.3046  160.1935 N.3     1  UNL1       -0.2890
     12 H         139.1746  137.3771  160.3306 H       1  UNL1        0.1239
     13 C         139.8005  136.7865  155.2908 C.3     1  UNL1        0.1107
     14 N         139.1963  137.5145  156.4548 N.am    1  UNL1       -0.3016
     15 C         140.0672  137.9723  157.5871 C.2     1  UNL1        0.2368
     16 O         141.5423  137.7022  157.5552 O.2     1  UNL1       -0.2737
     17 H         138.2281  137.6918  156.4757 H       1  UNL1        0.1495
     18 O         138.2286  139.2739  166.9814 O.3     1  UNL1       -0.4706
     19 C         139.4356  139.4409  167.8562 C.3     1  UNL1        0.2342
     20 C         139.7430  140.7779  168.4630 C.ar    1  UNL1        0.0486
     21 C         140.3640  141.8565  167.6258 C.ar    1  UNL1        0.0016
     22 C         140.6714  143.1934  168.2325 C.ar    1  UNL1       -0.0001
     23 C         140.3578  143.4517  169.6764 C.ar    1  UNL1        0.0023
     24 C         139.7368  142.3731  170.5136 C.ar    1  UNL1        0.0294
     25 C         139.4294  141.0362  169.9069 C.ar    1  UNL1        0.1396
     26 F         138.8083  139.9575  170.7441 F       1  UNL1       -0.2044
@<TRIPOS>BOND
     1    13    14    1
     2    14    15   am
     3    15    16    2
     4     7    15    1
     5     7     8    1
     6     8     9    1
     7     9    10    1
     8    10     1    1
     9     1     2   ar
    10     2     3   ar
    11     3     4   ar
    12     4    18    1
    13    18    19    1
    14    19    20    1
    15    20    21   ar
    16    21    22   ar
    17    22    23   ar
    18    23    24   ar
    19    24    25   ar
    20    25    26    1
    21     4     5   ar
    22     5     6   ar
    23    10    11    1
    24    11     7    1
    25     6     1   ar
    26    25    20   ar
    27    14    17    1
    28    11    12    1
@<TRIPOS>MOLECULE
*****
 26 28 0 0 0
SMALL
GASTEIGER

@<TRIPOS>ATOM
      1 C         141.2336  138.3511  161.4578 C.ar    1  UNL1       -0.0078
      2 C         139.7357  138.2775  161.4289 C.ar    1  UNL1        0.0001
      3 C         138.9770  137.9443  162.6791 C.ar    1  UNL1        0.0366
      4 C         139.7161  137.6848  163.9583 C.ar    1  UNL1        0.1390
      5 C         141.2140  137.7585  163.9872 C.ar    1  UNL1        0.0366
      6 C         141.9727  138.0916  162.7370 C.ar    1  UNL1        0.0001
      7 C         143.4205  139.8210  158.6078 C.3     1  UNL1        0.1317
      8 C         142.8996  138.5728  157.9590 C.3     1  UNL1        0.0268
      9 C         142.0171  137.8703  158.9477 C.3     1  UNL1        0.0221
     10 C         141.9924  138.6843  160.2074 C.3     1  UNL1        0.0772
     11 N         142.8598  139.8899  159.9973 N.3     1  UNL1       -0.2890
     12 H         143.6199  139.8923  160.6775 H       1  UNL1        0.1239
     13 C         146.2003  141.4027  156.2580 C.3     1  UNL1        0.1107
     14 N         145.2803  140.3995  156.8883 N.am    1  UNL1       -0.3016
     15 C         144.3406  140.8242  157.9775 C.2     1  UNL1        0.2368
     16 O         144.3209  142.2521  158.4365 O.2     1  UNL1       -0.2737
     17 H         145.2932  139.4623  156.5870 H       1  UNL1        0.1495
     18 O         138.9573  137.3517  165.2087 O.3     1  UNL1       -0.4706
     19 C         138.2558  138.4360  165.9717 C.3     1  UNL1        0.2342
     20 C         138.8550  139.8092  166.0455 C.ar    1  UNL1        0.0486
     21 C         139.8464  140.1379  167.1220 C.ar    1  UNL1        0.0016
     22 C         140.4455  141.5111  167.1958 C.ar    1  UNL1       -0.0001
     23 C         140.0532  142.5555  166.1932 C.ar    1  UNL1        0.0023
     24 C         139.0617  142.2267  165.1167 C.ar    1  UNL1        0.0294
     25 C         138.4626  140.8535  165.0428 C.ar    1  UNL1        0.1396
     26 F         137.4711  140.5247  163.9663 F       1  UNL1       -0.2044
@<TRIPOS>BOND
     1    13    14    1
     2    14    15   am
     3    15    16    2
     4     7    15    1
     5     7     8    1
     6     8     9    1
     7     9    10    1
     8    10     1    1
     9     1     2   ar
    10     2     3   ar
    11     3     4   ar
    12     4    18    1
    13    18    19    1
    14    19    20    1
    15    20    21   ar
    16    21    22   ar
    17    22    23   ar
    18    23    24   ar
    19    24    25   ar
    20    25    26    1
    21     4     5   ar
    22     5     6   ar
    23    10    11    1
    24    11     7    1
    25     6     1   ar
    26    25    20   ar
    27    14    17    1
    28    11    12    1
@<TRIPOS>MOLECULE
*****
 26 28 0 0 0
SMALL
GASTEIGER

@<TRIPOS>ATOM
      1 C         139.3089  140.3992  164.4681 C.ar    1  UNL1       -0.0078
      2 C         138.3503  139.3303  164.9020 C.ar    1  UNL1        0.0001
      3 C         138.1921  139.0112  166.3591 C.ar    1  UNL1        0.0366
      4 C         138.9926  139.7611  167.3822 C.ar    1  UNL1        0.1390
      5 C         139.9513  140.8300  166.9483 C.ar    1  UNL1        0.0366
      6 C         140.1094  141.1491  165.4913 C.ar    1  UNL1        0.0001
      7 C         139.5053  141.9184  160.9017 C.3     1  UNL1        0.1317
      8 C         139.9157  140.5003  160.6357 C.3     1  UNL1        0.0268
      9 C         139.8920  139.7587  161.9393 C.3     1  UNL1        0.0221
     10 C         139.4671  140.7183  163.0109 C.3     1  UNL1        0.0772
     11 N         139.2281  142.0531  162.3697 N.3     1  UNL1       -0.2890
     12 H         139.8519  142.7496  162.7772 H       1  UNL1        0.1239
     13 C         140.2873  145.2119  158.8300 C.3     1  UNL1        0.1107
     14 N         140.4005  144.1202  159.8525 N.am    1  UNL1       -0.3016
     15 C         139.3921  143.0101  159.8792 C.2     1  UNL1        0.2368
     16 O         138.2705  142.9916  158.8834 O.2     1  UNL1       -0.2737
     17 H         141.1367  144.1323  160.5061 H       1  UNL1        0.1495
     18 O         138.8345  139.4419  168.8394 O.3     1  UNL1       -0.4706
     19 C         139.0154  140.5194  169.8671 C.3     1  UNL1        0.2342
     20 C         140.3284  141.2362  169.9790 C.ar    1  UNL1        0.0486
     21 C         140.3695  142.7353  169.9477 C.ar    1  UNL1        0.0016
     22 C         141.6824  143.4520  170.0596 C.ar    1  UNL1       -0.0001
     23 C         142.9542  142.6697  170.2029 C.ar    1  UNL1        0.0023
     24 C         142.9130  141.1706  170.2343 C.ar    1  UNL1        0.0294
     25 C         141.6002  140.4539  170.1224 C.ar    1  UNL1        0.1396
     26 F         141.5590  138.9547  170.1537 F       1  UNL1       -0.2044
@<TRIPOS>BOND
     1    13    14    1
     2    14    15   am
     3    15    16    2
     4     7    15    1
     5     7     8    1
     6     8     9    1
     7     9    10    1
     8    10     1    1
     9     1     2   ar
    10     2     3   ar
    11     3     4   ar
    12     4    18    1
    13    18    19    1
    14    19    20    1
    15    20    21   ar
    16    21    22   ar
    17    22    23   ar
    18    23    24   ar
    19    24    25   ar
    20    25    26    1
    21     4     5   ar
    22     5     6   ar
    23    10    11    1
    24    11     7    1
    25     6     1   ar
    26    25    20   ar
    27    14    17    1
    28    11    12    1
@<TRIPOS>MOLECULE
*****
 26 28 0 0 0
SMALL
GASTEIGER

@<TRIPOS>ATOM
      1 C         142.4426  138.2275  162.3433 C.ar    1  UNL1       -0.0078
      2 C         143.6830  138.9035  162.8476 C.ar    1  UNL1        0.0001
      3 C         143.9513  138.9755  164.3216 C.ar    1  UNL1        0.0366
      4 C         142.9793  138.3715  165.2913 C.ar    1  UNL1        0.1390
      5 C         141.7389  137.6954  164.7870 C.ar    1  UNL1        0.0366
      6 C         141.4706  137.6234  163.3130 C.ar    1  UNL1        0.0001
      7 C         142.4020  137.6676  158.5027 C.3     1  UNL1        0.1317
      8 C         141.1202  138.4217  158.6992 C.3     1  UNL1        0.0268
      9 C         140.9795  138.7231  160.1618 C.3     1  UNL1        0.0221
     10 C         142.1742  138.1554  160.8692 C.3     1  UNL1        0.0772
     11 N         143.0534  137.5031  159.8438 N.3     1  UNL1       -0.2890
     12 H         143.1583  136.5114  160.0583 H       1  UNL1        0.1239
     13 C         143.1152  135.2898  155.4063 C.3     1  UNL1        0.1107
     14 N         142.5790  135.7913  156.7144 N.am    1  UNL1       -0.3016
     15 C         142.9382  137.1661  157.1946 C.2     1  UNL1        0.2368
     16 O         143.8337  138.0395  156.3668 O.2     1  UNL1       -0.2737
     17 H         141.9913  135.2180  157.2577 H       1  UNL1        0.1495
     18 O         143.2477  138.4435  166.7654 O.3     1  UNL1       -0.4706
     19 C         142.6584  139.5554  167.5816 C.3     1  UNL1        0.2342
     20 C         141.9258  140.6758  166.9047 C.ar    1  UNL1        0.0486
     21 C         142.6895  141.8309  166.3280 C.ar    1  UNL1        0.0016
     22 C         141.9570  142.9512  165.6512 C.ar    1  UNL1       -0.0001
     23 C         140.4607  142.9165  165.5509 C.ar    1  UNL1        0.0023
     24 C         139.6970  141.7614  166.1275 C.ar    1  UNL1        0.0294
     25 C         140.4296  140.6411  166.8044 C.ar    1  UNL1        0.1396
     26 F         139.6659  139.4859  167.3810 F       1  UNL1       -0.2044
@<TRIPOS>BOND
     1    13    14    1
     2    14    15   am
     3    15    16    2
     4     7    15    1
     5     7     8    1
     6     8     9    1
     7     9    10    1
     8    10     1    1
     9     1     2   ar
    10     2     3   ar
    11     3     4   ar
    12     4    18    1
    13    18    19    1
    14    19    20    1
    15    20    21   ar
    16    21    22   ar
    17    22    23   ar
    18    23    24   ar
    19    24    25   ar
    20    25    26    1
    21     4     5   ar
    22     5     6   ar
    23    10    11    1
    24    11     7    1
    25     6     1   ar
    26    25    20   ar
    27    14    17    1
    28    11    12    1
