@<TRIPOS>MOLECULE
*****
 37 42 0 0 0
SMALL
GASTEIGER

@<TRIPOS>ATOM
      1 C         140.6469  145.5217  159.6135 C.3     1  UNL1        0.0824
      2 C         139.9852  145.8932  160.9075 C.3     1  UNL1        0.0843
      3 C         142.0893  141.0020  169.0063 C.ar    1  UNL1        0.2057
      4 N         140.7302  141.4877  168.5974 N.ar    1  UNL1       -0.2121
      5 C         140.8666  142.1920  167.2802 C.ar    1  UNL1        0.1179
      6 C         139.8629  142.8727  166.3974 C.ar    1  UNL1        0.0178
      7 C         140.3026  143.5031  165.1092 C.ar    1  UNL1       -0.0233
      8 C         141.7458  143.4529  164.7039 C.ar    1  UNL1       -0.0256
      9 C         142.7495  142.7722  165.5867 C.ar    1  UNL1        0.0101
     10 C         144.1929  142.7219  165.1813 C.3     1  UNL1        0.0339
     11 C         142.3099  142.1418  166.8748 C.ar    1  UNL1        0.1600
     12 O         143.0656  141.4063  167.9416 O.2     1  UNL1       -0.4387
     13 C         142.3912  144.0133  163.4712 C.3     1  UNL1        0.0431
     14 C         141.7525  144.7626  162.3394 C.3     1  UNL1        0.0768
     15 N         140.3109  145.1362  162.1609 N.3     1  UNL1       -0.2713
     16 C         139.1517  144.8531  163.0699 C.3     1  UNL1        0.0768
     17 C         139.1481  144.1263  164.3820 C.3     1  UNL1        0.0434
     18 C         142.6677  138.7677  170.1993 C.3     1  UNL1        0.0102
     19 C         142.4150  140.2451  170.2597 C.3     1  UNL1        0.0853
     20 S         140.1701  144.3259  158.8435 S.3     1  UNL1       -0.0742
     21 C         139.6861  143.1082  159.5734 C.ar    1  UNL1        0.1933
     22 N         138.2535  142.7095  159.7700 N.ar    1  UNL1       -0.1221
     23 N         138.2317  141.4301  160.5529 N.ar    1  UNL1       -0.1282
     24 C         139.6507  141.0382  160.8401 C.ar    1  UNL1        0.1669
     25 N         140.5496  142.0753  160.2347 N.ar    1  UNL1       -0.2884
     26 C         142.0489  142.0787  160.2823 C.3     1  UNL1        0.1340
     27 C         140.0932  139.8226  161.5993 C.ar    1  UNL1        0.0374
     28 C         141.0774  138.8717  160.9850 C.ar    1  UNL1        0.0031
     29 C         141.5199  137.6560  161.7443 C.ar    1  UNL1        0.0016
     30 C         140.9782  137.3913  163.1178 C.ar    1  UNL1        0.0191
     31 C         139.9940  138.3422  163.7321 C.ar    1  UNL1        0.0810
     32 N         139.4524  138.0774  165.1056 N.ar    1  UNL1       -0.2497
     33 C         138.4682  139.0283  165.7198 C.ar    1  UNL1        0.0593
     34 C         137.9265  138.7635  167.0933 C.3     1  UNL1        0.0521
     35 C         138.0257  140.2439  164.9605 C.ar    1  UNL1        0.0147
     36 C         138.5674  140.5086  163.5870 C.ar    1  UNL1        0.0028
     37 C         139.5515  139.5578  162.9728 C.ar    1  UNL1        0.0206
@<TRIPOS>BOND
     1    18    19    1
     2    19     3    1
     3     3     4   ar
     4     4     5   ar
     5     5     6   ar
     6     6     7   ar
     7     7     8   ar
     8     8     9   ar
     9     9    10    1
    10     9    11   ar
    11    11    12   ar
    12     8    13    1
    13    13    14    1
    14    14    15    1
    15    15     2    1
    16     2     1    1
    17     1    20    1
    18    20    21    1
    19    21    22   ar
    20    22    23   ar
    21    23    24   ar
    22    24    27    1
    23    27    28   ar
    24    28    29   ar
    25    29    30   ar
    26    30    31   ar
    27    31    32   ar
    28    32    33   ar
    29    33    34    1
    30    33    35   ar
    31    35    36   ar
    32    36    37   ar
    33    24    25   ar
    34    25    26    1
    35    15    16    1
    36    16    17    1
    37    12     3   ar
    38    25    21   ar
    39    11     5   ar
    40    37    27   ar
    41    17     7    1
    42    37    31   ar
@<TRIPOS>MOLECULE
*****
 37 42 0 0 0
SMALL
GASTEIGER

@<TRIPOS>ATOM
      1 C         140.5076  145.5652  159.7784 C.3     1  UNL1        0.0824
      2 C         139.9608  145.9593  161.1185 C.3     1  UNL1        0.0843
      3 C         142.3816  140.8956  169.0204 C.ar    1  UNL1        0.2057
      4 N         140.9903  141.2780  168.6101 N.ar    1  UNL1       -0.2121
      5 C         141.0813  142.0532  167.3293 C.ar    1  UNL1        0.1179
      6 C         140.0331  142.6835  166.4609 C.ar    1  UNL1        0.0178
      7 C         140.4324  143.4106  165.2111 C.ar    1  UNL1       -0.0233
      8 C         141.8798  143.5072  164.8297 C.ar    1  UNL1       -0.0256
      9 C         142.9280  142.8769  165.6979 C.ar    1  UNL1        0.0101
     10 C         144.3755  142.9737  165.3164 C.3     1  UNL1        0.0339
     11 C         142.5288  142.1499  166.9478 C.ar    1  UNL1        0.1600
     12 O         143.3323  141.4345  167.9930 O.2     1  UNL1       -0.4387
     13 C         142.4894  144.1802  163.6357 C.3     1  UNL1        0.0431
     14 C         141.8020  144.9228  162.5283 C.3     1  UNL1        0.0768
     15 N         140.3354  145.1756  162.3414 N.3     1  UNL1       -0.2713
     16 C         139.1938  144.7485  163.2157 C.3     1  UNL1        0.0768
     17 C         139.2370  143.9629  164.4928 C.3     1  UNL1        0.0434
     18 C         142.6686  138.6145  170.2305 C.3     1  UNL1        0.0102
     19 C         142.7562  140.1119  170.2433 C.3     1  UNL1        0.0853
     20 S         140.0654  144.2844  159.1350 S.3     1  UNL1       -0.0742
     21 C         140.5206  142.9686  159.6931 C.ar    1  UNL1        0.1933
     22 N         141.8435  142.3111  159.4336 N.ar    1  UNL1       -0.1221
     23 N         141.8732  141.0154  160.1889 N.ar    1  UNL1       -0.1282
     24 C         140.5687  140.8722  160.9151 C.ar    1  UNL1        0.1669
     25 N         139.7327  142.0793  160.6087 N.ar    1  UNL1       -0.2884
     26 C         138.3512  142.3497  161.1270 C.3     1  UNL1        0.1340
     27 C         140.1701  139.7235  161.7936 C.ar    1  UNL1        0.0374
     28 C         138.9021  138.9715  161.5157 C.ar    1  UNL1        0.0031
     29 C         138.5036  137.8228  162.3941 C.ar    1  UNL1        0.0016
     30 C         139.3728  137.4260  163.5504 C.ar    1  UNL1        0.0191
     31 C         140.6407  138.1780  163.8282 C.ar    1  UNL1        0.0810
     32 N         141.5099  137.7812  164.9845 N.ar    1  UNL1       -0.2497
     33 C         142.7778  138.5331  165.2623 C.ar    1  UNL1        0.0593
     34 C         143.6470  138.1363  166.4186 C.3     1  UNL1        0.0521
     35 C         143.1764  139.6818  164.3839 C.ar    1  UNL1        0.0147
     36 C         142.3071  140.0786  163.2277 C.ar    1  UNL1        0.0028
     37 C         141.0393  139.3267  162.9498 C.ar    1  UNL1        0.0206
@<TRIPOS>BOND
     1    18    19    1
     2    19     3    1
     3     3     4   ar
     4     4     5   ar
     5     5     6   ar
     6     6     7   ar
     7     7     8   ar
     8     8     9   ar
     9     9    10    1
    10     9    11   ar
    11    11    12   ar
    12     8    13    1
    13    13    14    1
    14    14    15    1
    15    15     2    1
    16     2     1    1
    17     1    20    1
    18    20    21    1
    19    21    22   ar
    20    22    23   ar
    21    23    24   ar
    22    24    27    1
    23    27    28   ar
    24    28    29   ar
    25    29    30   ar
    26    30    31   ar
    27    31    32   ar
    28    32    33   ar
    29    33    34    1
    30    33    35   ar
    31    35    36   ar
    32    36    37   ar
    33    24    25   ar
    34    25    26    1
    35    15    16    1
    36    16    17    1
    37    12     3   ar
    38    25    21   ar
    39    11     5   ar
    40    37    27   ar
    41    17     7    1
    42    37    31   ar
@<TRIPOS>MOLECULE
*****
 37 42 0 0 0
SMALL
GASTEIGER

@<TRIPOS>ATOM
      1 C         142.9467  140.9313  169.1917 C.3     1  UNL1        0.0824
      2 C         142.1330  142.1587  168.9061 C.3     1  UNL1        0.0843
      3 C         140.9212  145.1524  159.7677 C.ar    1  UNL1        0.2057
      4 N         139.8363  144.9722  160.7877 N.ar    1  UNL1       -0.2121
      5 C         140.4712  144.4964  162.0606 C.ar    1  UNL1        0.1179
      6 C         139.8949  144.1521  163.4021 C.ar    1  UNL1        0.0178
      7 C         140.7960  143.6939  164.5103 C.ar    1  UNL1       -0.0233
      8 C         142.2733  143.5801  164.2770 C.ar    1  UNL1       -0.0256
      9 C         142.8496  143.9243  162.9357 C.ar    1  UNL1        0.0101
     10 C         144.3270  143.8105  162.7025 C.3     1  UNL1        0.0339
     11 C         141.9486  144.3825  161.8275 C.ar    1  UNL1        0.1600
     12 O         142.2267  144.7880  160.4103 O.2     1  UNL1       -0.4387
     13 C         143.3411  143.1468  165.2374 C.3     1  UNL1        0.0431
     14 C         143.1952  142.7204  166.6682 C.3     1  UNL1        0.0768
     15 N         141.9455  142.6220  167.4918 N.3     1  UNL1       -0.2713
     16 C         140.5330  142.9256  167.0883 C.3     1  UNL1        0.0768
     17 C         140.0215  143.4027  165.7614 C.3     1  UNL1        0.0434
     18 C         141.9271  145.9630  157.5135 C.3     1  UNL1        0.0102
     19 C         140.7337  145.6158  158.3534 C.3     1  UNL1        0.0853
     20 S         142.4180  139.5776  168.8201 S.3     1  UNL1       -0.0742
     21 C         142.3702  139.1606  167.3801 C.ar    1  UNL1        0.1933
     22 N         143.5123  138.5986  166.5865 N.ar    1  UNL1       -0.1221
     23 N         143.0197  138.3230  165.1967 N.ar    1  UNL1       -0.1282
     24 C         141.5733  138.7145  165.1314 C.ar    1  UNL1        0.1669
     25 N         141.1718  139.2322  166.4808 N.ar    1  UNL1       -0.2884
     26 C         139.8108  139.7335  166.8636 C.3     1  UNL1        0.1340
     27 C         140.6843  138.6072  163.9279 C.ar    1  UNL1        0.0374
     28 C         139.4390  137.7731  163.9873 C.ar    1  UNL1        0.0031
     29 C         138.5501  137.6658  162.7839 C.ar    1  UNL1        0.0016
     30 C         138.9064  138.3926  161.5210 C.ar    1  UNL1        0.0191
     31 C         140.1517  139.2268  161.4616 C.ar    1  UNL1        0.0810
     32 N         140.5080  139.9536  160.1988 N.ar    1  UNL1       -0.2497
     33 C         141.7533  140.7878  160.1395 C.ar    1  UNL1        0.0593
     34 C         142.1096  141.5146  158.8767 C.3     1  UNL1        0.0521
     35 C         142.6422  140.8951  161.3429 C.ar    1  UNL1        0.0147
     36 C         142.2859  140.1682  162.6057 C.ar    1  UNL1        0.0028
     37 C         141.0407  139.3341  162.6651 C.ar    1  UNL1        0.0206
@<TRIPOS>BOND
     1    18    19    1
     2    19     3    1
     3     3     4   ar
     4     4     5   ar
     5     5     6   ar
     6     6     7   ar
     7     7     8   ar
     8     8     9   ar
     9     9    10    1
    10     9    11   ar
    11    11    12   ar
    12     8    13    1
    13    13    14    1
    14    14    15    1
    15    15     2    1
    16     2     1    1
    17     1    20    1
    18    20    21    1
    19    21    22   ar
    20    22    23   ar
    21    23    24   ar
    22    24    27    1
    23    27    28   ar
    24    28    29   ar
    25    29    30   ar
    26    30    31   ar
    27    31    32   ar
    28    32    33   ar
    29    33    34    1
    30    33    35   ar
    31    35    36   ar
    32    36    37   ar
    33    24    25   ar
    34    25    26    1
    35    15    16    1
    36    16    17    1
    37    12     3   ar
    38    25    21   ar
    39    11     5   ar
    40    37    27   ar
    41    17     7    1
    42    37    31   ar
@<TRIPOS>MOLECULE
*****
 37 42 0 0 0
SMALL
GASTEIGER

@<TRIPOS>ATOM
      1 C         142.2566  138.4002  158.1308 C.3     1  UNL1        0.0824
      2 C         142.7813  137.6563  159.3231 C.3     1  UNL1        0.0843
      3 C         139.7058  139.9712  168.2182 C.ar    1  UNL1        0.2057
      4 N         138.8483  139.8443  166.9940 N.ar    1  UNL1       -0.2121
      5 C         139.7354  139.4716  165.8433 C.ar    1  UNL1        0.1179
      6 C         139.4447  139.2132  164.3946 C.ar    1  UNL1        0.0178
      7 C         140.5598  138.8511  163.4589 C.ar    1  UNL1       -0.0233
      8 C         141.9655  138.7476  163.9719 C.ar    1  UNL1       -0.0256
      9 C         142.2562  139.0061  165.4205 C.ar    1  UNL1        0.0101
     10 C         143.6620  138.9025  165.9335 C.3     1  UNL1        0.0339
     11 C         141.1412  139.3681  166.3563 C.ar    1  UNL1        0.1600
     12 O         141.1229  139.6768  167.8241 O.2     1  UNL1       -0.4387
     13 C         143.2141  138.4029  163.2154 C.3     1  UNL1        0.0431
     14 C         143.3653  138.0767  161.7591 C.3     1  UNL1        0.0768
     15 N         142.3053  138.0146  160.6997 N.3     1  UNL1       -0.2713
     16 C         140.8322  138.2633  160.8348 C.3     1  UNL1        0.0768
     17 C         140.0554  138.6356  162.0628 C.3     1  UNL1        0.0434
     18 C         139.5258  141.6865  170.1612 C.3     1  UNL1        0.0102
     19 C         139.2299  140.3294  169.5949 C.3     1  UNL1        0.0853
     20 S         142.9259  139.6654  157.6819 S.3     1  UNL1       -0.0742
     21 C         142.9772  140.8523  158.5976 C.ar    1  UNL1        0.1933
     22 N         144.2150  141.4490  159.1989 N.ar    1  UNL1       -0.1221
     23 N         143.8024  142.6165  160.0457 N.ar    1  UNL1       -0.1282
     24 C         142.3097  142.7412  159.9677 C.ar    1  UNL1        0.1669
     25 N         141.7997  141.6509  159.0727 N.ar    1  UNL1       -0.2884
     26 C         140.3640  141.4027  158.7155 C.3     1  UNL1        0.1340
     27 C         141.4738  143.7748  160.6626 C.ar    1  UNL1        0.0374
     28 C         140.9410  144.9484  159.8951 C.ar    1  UNL1        0.0031
     29 C         140.1051  145.9820  160.5901 C.ar    1  UNL1        0.0016
     30 C         139.8020  145.8421  162.0525 C.ar    1  UNL1        0.0191
     31 C         140.3349  144.6685  162.8200 C.ar    1  UNL1        0.0810
     32 N         140.0318  144.5286  164.2823 N.ar    1  UNL1       -0.2497
     33 C         140.5647  143.3551  165.0498 C.ar    1  UNL1        0.0593
     34 C         140.2616  143.2152  166.5121 C.3     1  UNL1        0.0521
     35 C         141.4006  142.3215  164.3548 C.ar    1  UNL1        0.0147
     36 C         141.7036  142.4614  162.8924 C.ar    1  UNL1        0.0028
     37 C         141.1708  143.6349  162.1250 C.ar    1  UNL1        0.0206
@<TRIPOS>BOND
     1    18    19    1
     2    19     3    1
     3     3     4   ar
     4     4     5   ar
     5     5     6   ar
     6     6     7   ar
     7     7     8   ar
     8     8     9   ar
     9     9    10    1
    10     9    11   ar
    11    11    12   ar
    12     8    13    1
    13    13    14    1
    14    14    15    1
    15    15     2    1
    16     2     1    1
    17     1    20    1
    18    20    21    1
    19    21    22   ar
    20    22    23   ar
    21    23    24   ar
    22    24    27    1
    23    27    28   ar
    24    28    29   ar
    25    29    30   ar
    26    30    31   ar
    27    31    32   ar
    28    32    33   ar
    29    33    34    1
    30    33    35   ar
    31    35    36   ar
    32    36    37   ar
    33    24    25   ar
    34    25    26    1
    35    15    16    1
    36    16    17    1
    37    12     3   ar
    38    25    21   ar
    39    11     5   ar
    40    37    27   ar
    41    17     7    1
    42    37    31   ar
@<TRIPOS>MOLECULE
*****
 37 42 0 0 0
SMALL
GASTEIGER

@<TRIPOS>ATOM
      1 C         140.6076  140.5491  169.1598 C.3     1  UNL1        0.0824
      2 C         139.4214  139.9337  168.4784 C.3     1  UNL1        0.0843
      3 C         138.1488  141.1293  158.9447 C.ar    1  UNL1        0.2057
      4 N         138.4274  142.2163  159.9402 N.ar    1  UNL1       -0.2121
      5 C         138.5525  141.5836  161.2944 C.ar    1  UNL1        0.1179
      6 C         138.8237  142.1623  162.6515 C.ar    1  UNL1        0.0178
      7 C         138.8936  141.2630  163.8500 C.ar    1  UNL1       -0.0233
      8 C         138.6924  139.7852  163.6915 C.ar    1  UNL1       -0.0256
      9 C         138.4212  139.2064  162.3345 C.ar    1  UNL1        0.0101
     10 C         138.2200  137.7284  162.1760 C.3     1  UNL1        0.0339
     11 C         138.3513  140.1056  161.1359 C.ar    1  UNL1        0.1600
     12 O         138.1018  139.8249  159.6837 O.2     1  UNL1       -0.4387
     13 C         138.7209  138.7189  164.7462 C.3     1  UNL1        0.0431
     14 C         138.9577  138.8675  166.2200 C.3     1  UNL1        0.0768
     15 N         139.2244  140.1187  167.0029 N.3     1  UNL1       -0.2713
     16 C         139.3203  141.5307  166.5056 C.3     1  UNL1        0.0768
     17 C         139.1731  142.0399  165.1024 C.3     1  UNL1        0.0434
     18 C         136.6082  141.0576  156.8539 C.3     1  UNL1        0.0102
     19 C         137.9519  141.3144  157.4692 C.3     1  UNL1        0.0853
     20 S         141.9936  140.2434  168.6743 S.3     1  UNL1       -0.0742
     21 C         142.6831  141.1853  167.7324 C.ar    1  UNL1        0.1933
     22 N         143.3334  142.4849  168.1040 N.ar    1  UNL1       -0.1221
     23 N         143.8956  143.0958  166.8546 N.ar    1  UNL1       -0.1282
     24 C         143.5927  142.1739  165.7110 C.ar    1  UNL1        0.1669
     25 N         142.8433  140.9931  166.2534 N.ar    1  UNL1       -0.2884
     26 C         142.3422  139.8251  165.4567 C.3     1  UNL1        0.1340
     27 C         143.9725  142.3940  164.2766 C.ar    1  UNL1        0.0374
     28 C         145.2281  141.7811  163.7307 C.ar    1  UNL1        0.0031
     29 C         145.6080  142.0012  162.2964 C.ar    1  UNL1        0.0016
     30 C         144.7323  142.8342  161.4080 C.ar    1  UNL1        0.0191
     31 C         143.4767  143.4471  161.9539 C.ar    1  UNL1        0.0810
     32 N         142.6010  144.2801  161.0655 N.ar    1  UNL1       -0.2497
     33 C         141.3455  144.8929  161.6114 C.ar    1  UNL1        0.0593
     34 C         140.4698  145.7259  160.7230 C.3     1  UNL1        0.0521
     35 C         140.9656  144.6728  163.0457 C.ar    1  UNL1        0.0147
     36 C         141.8413  143.8398  163.9341 C.ar    1  UNL1        0.0028
     37 C         143.0968  143.2270  163.3882 C.ar    1  UNL1        0.0206
@<TRIPOS>BOND
     1    18    19    1
     2    19     3    1
     3     3     4   ar
     4     4     5   ar
     5     5     6   ar
     6     6     7   ar
     7     7     8   ar
     8     8     9   ar
     9     9    10    1
    10     9    11   ar
    11    11    12   ar
    12     8    13    1
    13    13    14    1
    14    14    15    1
    15    15     2    1
    16     2     1    1
    17     1    20    1
    18    20    21    1
    19    21    22   ar
    20    22    23   ar
    21    23    24   ar
    22    24    27    1
    23    27    28   ar
    24    28    29   ar
    25    29    30   ar
    26    30    31   ar
    27    31    32   ar
    28    32    33   ar
    29    33    34    1
    30    33    35   ar
    31    35    36   ar
    32    36    37   ar
    33    24    25   ar
    34    25    26    1
    35    15    16    1
    36    16    17    1
    37    12     3   ar
    38    25    21   ar
    39    11     5   ar
    40    37    27   ar
    41    17     7    1
    42    37    31   ar
@<TRIPOS>MOLECULE
*****
 37 42 0 0 0
SMALL
GASTEIGER

@<TRIPOS>ATOM
      1 C         139.2752  139.9750  168.2379 C.3     1  UNL1        0.0824
      2 C         138.4079  139.1202  167.3619 C.3     1  UNL1        0.0843
      3 C         138.9183  139.9767  157.7211 C.ar    1  UNL1        0.2057
      4 N         139.1320  138.7170  158.5069 N.ar    1  UNL1       -0.2121
      5 C         138.9575  139.0424  159.9607 C.ar    1  UNL1        0.1179
      6 C         139.0498  138.1971  161.1965 C.ar    1  UNL1        0.0178
      7 C         138.8207  138.8128  162.5450 C.ar    1  UNL1       -0.0233
      8 C         138.4992  140.2735  162.6578 C.ar    1  UNL1       -0.0256
      9 C         138.4068  141.1187  161.4221 C.ar    1  UNL1        0.0101
     10 C         138.0853  142.5795  161.5348 C.3     1  UNL1        0.0339
     11 C         138.6359  140.5032  160.0735 C.ar    1  UNL1        0.1600
     12 O         138.6117  141.0806  158.6893 O.2     1  UNL1       -0.4387
     13 C         138.2369  141.0807  163.8946 C.3     1  UNL1        0.0431
     14 C         138.2315  140.6263  165.3242 C.3     1  UNL1        0.0768
     15 N         138.4869  139.2528  165.8699 N.3     1  UNL1       -0.2713
     16 C         138.8108  137.9941  165.1210 C.3     1  UNL1        0.0768
     17 C         138.9594  137.7983  163.6412 C.3     1  UNL1        0.0434
     18 C         138.8906  138.8905  155.3611 C.3     1  UNL1        0.0102
     19 C         138.9972  140.1093  156.2290 C.3     1  UNL1        0.0853
     20 S         140.7601  139.7638  168.2582 S.3     1  UNL1       -0.0742
     21 C         141.6646  140.7285  167.5503 C.ar    1  UNL1        0.1933
     22 N         142.2597  141.9732  168.1389 N.ar    1  UNL1       -0.1221
     23 N         143.0957  142.6319  167.0819 N.ar    1  UNL1       -0.1282
     24 C         143.0173  141.7943  165.8401 C.ar    1  UNL1        0.1669
     25 N         142.1328  140.6179  166.1296 N.ar    1  UNL1       -0.2884
     26 C         141.7787  139.5232  165.1672 C.3     1  UNL1        0.1340
     27 C         143.7029  142.0825  164.5374 C.ar    1  UNL1        0.0374
     28 C         145.0866  141.5604  164.2866 C.ar    1  UNL1        0.0031
     29 C         145.7722  141.8486  162.9839 C.ar    1  UNL1        0.0016
     30 C         145.0743  142.6589  161.9322 C.ar    1  UNL1        0.0191
     31 C         143.6905  143.1810  162.1830 C.ar    1  UNL1        0.0810
     32 N         142.9926  143.9913  161.1313 N.ar    1  UNL1       -0.2497
     33 C         141.6089  144.5134  161.3821 C.ar    1  UNL1        0.0593
     34 C         140.9109  145.3237  160.3304 C.3     1  UNL1        0.0521
     35 C         140.9233  144.2252  162.6848 C.ar    1  UNL1        0.0147
     36 C         141.6213  143.4149  163.7365 C.ar    1  UNL1        0.0028
     37 C         143.0049  142.8928  163.4857 C.ar    1  UNL1        0.0206
@<TRIPOS>BOND
     1    18    19    1
     2    19     3    1
     3     3     4   ar
     4     4     5   ar
     5     5     6   ar
     6     6     7   ar
     7     7     8   ar
     8     8     9   ar
     9     9    10    1
    10     9    11   ar
    11    11    12   ar
    12     8    13    1
    13    13    14    1
    14    14    15    1
    15    15     2    1
    16     2     1    1
    17     1    20    1
    18    20    21    1
    19    21    22   ar
    20    22    23   ar
    21    23    24   ar
    22    24    27    1
    23    27    28   ar
    24    28    29   ar
    25    29    30   ar
    26    30    31   ar
    27    31    32   ar
    28    32    33   ar
    29    33    34    1
    30    33    35   ar
    31    35    36   ar
    32    36    37   ar
    33    24    25   ar
    34    25    26    1
    35    15    16    1
    36    16    17    1
    37    12     3   ar
    38    25    21   ar
    39    11     5   ar
    40    37    27   ar
    41    17     7    1
    42    37    31   ar
@<TRIPOS>MOLECULE
*****
 37 42 0 0 0
SMALL
GASTEIGER

@<TRIPOS>ATOM
      1 C         141.0137  144.6187  158.1843 C.3     1  UNL1        0.0824
      2 C         141.1374  145.5347  159.3657 C.3     1  UNL1        0.0843
      3 C         141.0210  141.8993  168.3497 C.ar    1  UNL1        0.2057
      4 N         142.0488  141.6122  167.2955 N.ar    1  UNL1       -0.2121
      5 C         141.6774  142.3832  166.0637 C.ar    1  UNL1        0.1179
      6 C         142.3217  142.4886  164.7132 C.ar    1  UNL1        0.0178
      7 C         141.7086  143.3577  163.6555 C.ar    1  UNL1       -0.0233
      8 C         140.4513  144.1214  163.9483 C.ar    1  UNL1       -0.0256
      9 C         139.8069  144.0161  165.2987 C.ar    1  UNL1        0.0101
     10 C         138.5496  144.7798  165.5914 C.3     1  UNL1        0.0339
     11 C         140.4200  143.1470  166.3565 C.ar    1  UNL1        0.1600
     12 O         140.0144  142.8479  167.7693 O.2     1  UNL1       -0.4387
     13 C         139.6813  145.0375  163.0438 C.3     1  UNL1        0.0431
     14 C         139.9788  145.4161  161.6230 C.3     1  UNL1        0.0768
     15 N         141.1194  144.9721  160.7561 N.3     1  UNL1       -0.2713
     16 C         142.2444  144.0398  161.0956 C.3     1  UNL1        0.0768
     17 C         142.5067  143.3214  162.3859 C.3     1  UNL1        0.0434
     18 C         142.2779  141.2324  170.5235 C.3     1  UNL1        0.0102
     19 C         141.0030  141.3367  169.7401 C.3     1  UNL1        0.0853
     20 S         139.8134  143.7296  158.0469 S.3     1  UNL1       -0.0742
     21 C         139.4534  142.7799  159.1505 C.ar    1  UNL1        0.1933
     22 N         138.1562  142.7541  159.9034 N.ar    1  UNL1       -0.1221
     23 N         138.2284  141.6473  160.9134 N.ar    1  UNL1       -0.1282
     24 C         139.5701  140.9891  160.7846 C.ar    1  UNL1        0.1669
     25 N         140.3271  141.6890  159.6952 N.ar    1  UNL1       -0.2884
     26 C         141.7145  141.3565  159.2317 C.3     1  UNL1        0.1340
     27 C         140.0674  139.8338  161.6019 C.ar    1  UNL1        0.0374
     28 C         140.9589  138.8018  160.9771 C.ar    1  UNL1        0.0031
     29 C         141.4562  137.6465  161.7944 C.ar    1  UNL1        0.0016
     30 C         141.0620  137.5231  163.2364 C.ar    1  UNL1        0.0191
     31 C         140.1705  138.5551  163.8612 C.ar    1  UNL1        0.0810
     32 N         139.7762  138.4317  165.3032 N.ar    1  UNL1       -0.2497
     33 C         138.8847  139.4636  165.9279 C.ar    1  UNL1        0.0593
     34 C         138.4905  139.3402  167.3699 C.3     1  UNL1        0.0521
     35 C         138.3874  140.6189  165.1106 C.ar    1  UNL1        0.0147
     36 C         138.7817  140.7423  163.6686 C.ar    1  UNL1        0.0028
     37 C         139.6732  139.7104  163.0439 C.ar    1  UNL1        0.0206
@<TRIPOS>BOND
     1    18    19    1
     2    19     3    1
     3     3     4   ar
     4     4     5   ar
     5     5     6   ar
     6     6     7   ar
     7     7     8   ar
     8     8     9   ar
     9     9    10    1
    10     9    11   ar
    11    11    12   ar
    12     8    13    1
    13    13    14    1
    14    14    15    1
    15    15     2    1
    16     2     1    1
    17     1    20    1
    18    20    21    1
    19    21    22   ar
    20    22    23   ar
    21    23    24   ar
    22    24    27    1
    23    27    28   ar
    24    28    29   ar
    25    29    30   ar
    26    30    31   ar
    27    31    32   ar
    28    32    33   ar
    29    33    34    1
    30    33    35   ar
    31    35    36   ar
    32    36    37   ar
    33    24    25   ar
    34    25    26    1
    35    15    16    1
    36    16    17    1
    37    12     3   ar
    38    25    21   ar
    39    11     5   ar
    40    37    27   ar
    41    17     7    1
    42    37    31   ar
@<TRIPOS>MOLECULE
*****
 37 42 0 0 0
SMALL
GASTEIGER

@<TRIPOS>ATOM
      1 C         142.7089  138.1214  158.8592 C.3     1  UNL1        0.0824
      2 C         142.9150  137.4210  160.1695 C.3     1  UNL1        0.0843
      3 C         140.4993  141.8315  168.4552 C.ar    1  UNL1        0.2057
      4 N         141.7237  142.1075  167.6338 N.ar    1  UNL1       -0.2121
      5 C         141.6955  141.1997  166.4402 C.ar    1  UNL1        0.1179
      6 C         142.6403  141.0271  165.2879 C.ar    1  UNL1        0.0178
      7 C         142.3430  140.0174  164.2191 C.ar    1  UNL1       -0.0233
      8 C         141.1012  139.1803  164.3027 C.ar    1  UNL1       -0.0256
      9 C         140.1565  139.3528  165.4549 C.ar    1  UNL1        0.0101
     10 C         138.9146  138.5157  165.5384 C.3     1  UNL1        0.0339
     11 C         140.4536  140.3625  166.5237 C.ar    1  UNL1        0.1600
     12 O         139.7143  140.7530  167.7690 O.2     1  UNL1       -0.4387
     13 C         140.6192  138.1247  163.3522 C.3     1  UNL1        0.0431
     14 C         141.2601  137.6455  162.0834 C.3     1  UNL1        0.0768
     15 N         142.5411  138.1035  161.4518 N.3     1  UNL1       -0.2713
     16 C         143.4979  139.1539  161.9329 C.3     1  UNL1        0.0768
     17 C         143.4097  140.0057  163.1645 C.3     1  UNL1        0.0434
     18 C         140.3980  143.9784  169.9148 C.3     1  UNL1        0.0102
     19 C         140.1254  142.5141  169.7375 C.3     1  UNL1        0.0853
     20 S         141.3213  138.3202  158.3251 S.3     1  UNL1       -0.0742
     21 C         140.4903  139.4724  158.8066 C.ar    1  UNL1        0.1933
     22 N         138.9983  139.4795  158.9610 N.ar    1  UNL1       -0.1221
     23 N         138.5913  140.8313  159.4682 N.ar    1  UNL1       -0.1282
     24 C         139.8317  141.6595  159.6271 C.ar    1  UNL1        0.1669
     25 N         141.0054  140.8197  159.2183 N.ar    1  UNL1       -0.2884
     26 C         142.4419  141.2514  159.2207 C.3     1  UNL1        0.1340
     27 C         139.8885  143.0785  160.1102 C.ar    1  UNL1        0.0374
     28 C         140.1479  144.1917  159.1387 C.ar    1  UNL1        0.0031
     29 C         140.2047  145.6106  159.6217 C.ar    1  UNL1        0.0016
     30 C         140.0020  145.9165  161.0761 C.ar    1  UNL1        0.0191
     31 C         139.7426  144.8033  162.0476 C.ar    1  UNL1        0.0810
     32 N         139.5399  145.1092  163.5020 N.ar    1  UNL1       -0.2497
     33 C         139.2805  143.9960  164.4734 C.ar    1  UNL1        0.0593
     34 C         139.0778  144.3019  165.9279 C.3     1  UNL1        0.0521
     35 C         139.2237  142.5771  163.9904 C.ar    1  UNL1        0.0147
     36 C         139.4264  142.2712  162.5360 C.ar    1  UNL1        0.0028
     37 C         139.6858  143.3843  161.5646 C.ar    1  UNL1        0.0206
@<TRIPOS>BOND
     1    18    19    1
     2    19     3    1
     3     3     4   ar
     4     4     5   ar
     5     5     6   ar
     6     6     7   ar
     7     7     8   ar
     8     8     9   ar
     9     9    10    1
    10     9    11   ar
    11    11    12   ar
    12     8    13    1
    13    13    14    1
    14    14    15    1
    15    15     2    1
    16     2     1    1
    17     1    20    1
    18    20    21    1
    19    21    22   ar
    20    22    23   ar
    21    23    24   ar
    22    24    27    1
    23    27    28   ar
    24    28    29   ar
    25    29    30   ar
    26    30    31   ar
    27    31    32   ar
    28    32    33   ar
    29    33    34    1
    30    33    35   ar
    31    35    36   ar
    32    36    37   ar
    33    24    25   ar
    34    25    26    1
    35    15    16    1
    36    16    17    1
    37    12     3   ar
    38    25    21   ar
    39    11     5   ar
    40    37    27   ar
    41    17     7    1
    42    37    31   ar
@<TRIPOS>MOLECULE
*****
 37 42 0 0 0
SMALL
GASTEIGER

@<TRIPOS>ATOM
      1 C         141.8357  144.0667  157.9288 C.3     1  UNL1        0.0824
      2 C         141.7541  145.0764  159.0351 C.3     1  UNL1        0.0843
      3 C         141.1795  142.1315  168.2513 C.ar    1  UNL1        0.2057
      4 N         142.2723  141.7887  167.2826 N.ar    1  UNL1       -0.2121
      5 C         141.9594  142.4554  165.9759 C.ar    1  UNL1        0.1179
      6 C         142.6795  142.4726  164.6602 C.ar    1  UNL1        0.0178
      7 C         142.1134  143.2448  163.5054 C.ar    1  UNL1       -0.0233
      8 C         140.8274  143.9997  163.6665 C.ar    1  UNL1       -0.0256
      9 C         140.1073  143.9825  164.9822 C.ar    1  UNL1        0.0101
     10 C         138.8211  144.7375  165.1432 C.3     1  UNL1        0.0339
     11 C         140.6733  143.2104  166.1370 C.ar    1  UNL1        0.1600
     12 O         140.1913  143.0102  167.5432 O.2     1  UNL1       -0.4387
     13 C         140.0949  144.8267  162.6518 C.3     1  UNL1        0.0431
     14 C         140.4679  145.1031  161.2253 C.3     1  UNL1        0.0768
     15 N         141.6652  144.6206  160.4615 N.3     1  UNL1       -0.2713
     16 C         142.7854  143.7427  160.9352 C.3     1  UNL1        0.0768
     17 C         142.9849  143.1304  162.2899 C.3     1  UNL1        0.0434
     18 C         141.8763  140.4822  170.1340 C.3     1  UNL1        0.0102
     19 C         141.0906  141.6758  169.6777 C.3     1  UNL1        0.0853
     20 S         140.8115  142.9750  157.8325 S.3     1  UNL1       -0.0742
     21 C         141.0003  141.6997  158.5992 C.ar    1  UNL1        0.1933
     22 N         142.0242  140.6418  158.3121 N.ar    1  UNL1       -0.1221
     23 N         141.8551  139.5466  159.3232 N.ar    1  UNL1       -0.1282
     24 C         140.7269  139.9277  160.2351 C.ar    1  UNL1        0.1669
     25 N         140.1986  141.2584  159.7877 N.ar    1  UNL1       -0.2884
     26 C         139.0671  142.0150  160.4181 C.3     1  UNL1        0.1340
     27 C         140.2165  139.1200  161.3914 C.ar    1  UNL1        0.0374
     28 C         138.8387  138.5287  161.3432 C.ar    1  UNL1        0.0031
     29 C         138.3283  137.7210  162.4995 C.ar    1  UNL1        0.0016
     30 C         139.1957  137.5044  163.7040 C.ar    1  UNL1        0.0191
     31 C         140.5735  138.0957  163.7522 C.ar    1  UNL1        0.0810
     32 N         141.4408  137.8792  164.9567 N.ar    1  UNL1       -0.2497
     33 C         142.8185  138.4704  165.0049 C.ar    1  UNL1        0.0593
     34 C         143.6859  138.2539  166.2094 C.3     1  UNL1        0.0521
     35 C         143.3289  139.2781  163.8485 C.ar    1  UNL1        0.0147
     36 C         142.4616  139.4947  162.6441 C.ar    1  UNL1        0.0028
     37 C         141.0838  138.9035  162.5959 C.ar    1  UNL1        0.0206
@<TRIPOS>BOND
     1    18    19    1
     2    19     3    1
     3     3     4   ar
     4     4     5   ar
     5     5     6   ar
     6     6     7   ar
     7     7     8   ar
     8     8     9   ar
     9     9    10    1
    10     9    11   ar
    11    11    12   ar
    12     8    13    1
    13    13    14    1
    14    14    15    1
    15    15     2    1
    16     2     1    1
    17     1    20    1
    18    20    21    1
    19    21    22   ar
    20    22    23   ar
    21    23    24   ar
    22    24    27    1
    23    27    28   ar
    24    28    29   ar
    25    29    30   ar
    26    30    31   ar
    27    31    32   ar
    28    32    33   ar
    29    33    34    1
    30    33    35   ar
    31    35    36   ar
    32    36    37   ar
    33    24    25   ar
    34    25    26    1
    35    15    16    1
    36    16    17    1
    37    12     3   ar
    38    25    21   ar
    39    11     5   ar
    40    37    27   ar
    41    17     7    1
    42    37    31   ar
