@<TRIPOS>MOLECULE
*****
 32 36 0 0 0
SMALL
GASTEIGER

@<TRIPOS>ATOM
      1 N         141.9110  137.6483  157.1152 N.ar    1  UNL1       -0.2172
      2 C         140.6638  138.1724  156.4674 C.ar    1  UNL1        0.0586
      3 C         139.9583  139.0474  157.4606 C.ar    1  UNL1        0.0088
      4 C         140.7694  139.0641  158.7223 C.ar    1  UNL1        0.0161
      5 C         140.5650  139.7549  160.0379 C.ar    1  UNL1        0.0058
      6 C         141.5675  139.5810  161.1400 C.ar    1  UNL1        0.0537
      7 C         142.7744  138.7163  160.9265 C.ar    1  UNL1        0.0061
      8 C         142.9788  138.0254  159.6109 C.ar    1  UNL1        0.0191
      9 C         141.9763  138.1993  158.5088 C.ar    1  UNL1        0.0815
     10 C         138.6683  139.7160  157.0879 C.3     1  UNL1        0.1004
     11 N         138.0839  139.5096  155.7219 N.3     1  UNL1       -0.2675
     12 C         138.7894  138.6345  154.7287 C.3     1  UNL1        0.0787
     13 C         140.0794  137.9660  155.1014 C.3     1  UNL1        0.0627
     14 C         141.3631  140.2719  162.4557 C.2     1  UNL1        0.2490
     15 O         142.0463  141.5787  162.7307 O.2     1  UNL1       -0.2699
     16 N         140.4756  139.6560  163.4963 N.am    1  UNL1       -0.2761
     17 C         139.7925  138.3491  163.2213 C.3     1  UNL1        0.0937
     18 C         138.9049  137.7332  164.2619 C.3     1  UNL1        0.0216
     19 C         138.7006  138.4241  165.5776 C.3     1  UNL1        0.0034
     20 C         137.8130  137.8081  166.6182 C.3     1  UNL1        0.0001
     21 C         139.3837  139.7308  165.8526 C.3     1  UNL1        0.0216
     22 C         140.2712  140.3468  164.8120 C.3     1  UNL1        0.0937
     23 C         136.7938  140.1782  155.3492 C.3     1  UNL1        0.0900
     24 C         135.8413  139.7242  154.2832 C.3     1  UNL1        0.0506
     25 C         134.6887  140.6836  154.2523 C.3     1  UNL1        0.1437
     26 O         134.9289  141.7306  155.2992 O.3     1  UNL1       -0.3523
     27 C         136.2300  141.4182  155.9772 C.3     1  UNL1        0.1580
     28 S         142.9165  136.7336  156.4808 S.O2    1  UNL1        0.0660
     29 O         143.8498  137.8922  156.2895 O.2     1  UNL1       -0.1521
     30 O         141.9833  135.5750  156.6721 O.2     1  UNL1       -0.1521
     31 C         143.7333  134.3326  155.9166 C.3     1  UNL1        0.0294
     32 C         143.9220  135.8190  155.8464 C.3     1  UNL1        0.1752
@<TRIPOS>BOND
     1    31    32    1
     2    32    28    1
     3    28    29    2
     4    28    30    2
     5    28     1    1
     6     1     2   ar
     7     2     3   ar
     8     3     4   ar
     9     4     5   ar
    10     5     6   ar
    11     6    14    1
    12    14    15    2
    13    14    16   am
    14    16    17    1
    15    17    18    1
    16    18    19    1
    17    19    20    1
    18    19    21    1
    19    21    22    1
    20     6     7   ar
    21     7     8   ar
    22     8     9   ar
    23     3    10    1
    24    10    11    1
    25    11    23    1
    26    23    24    1
    27    24    25    1
    28    25    26    1
    29    26    27    1
    30    11    12    1
    31    12    13    1
    32     9     1   ar
    33    27    23    1
    34    13     2    1
    35     9     4   ar
    36    22    16    1
@<TRIPOS>MOLECULE
*****
 32 36 0 0 0
SMALL
GASTEIGER

@<TRIPOS>ATOM
      1 N         144.0844  141.7194  158.7456 N.ar    1  UNL1       -0.2172
      2 C         145.2777  141.9166  157.8583 C.ar    1  UNL1        0.0586
      3 C         145.1864  140.9294  156.7327 C.ar    1  UNL1        0.0088
      4 C         143.9367  140.1221  156.9243 C.ar    1  UNL1        0.0161
      5 C         143.3310  139.0055  156.1267 C.ar    1  UNL1        0.0058
      6 C         142.0442  138.3771  156.5731 C.ar    1  UNL1        0.0537
      7 C         141.3632  138.8654  157.8172 C.ar    1  UNL1        0.0061
      8 C         141.9689  139.9820  158.6149 C.ar    1  UNL1        0.0191
      9 C         143.2557  140.6103  158.1684 C.ar    1  UNL1        0.0815
     10 C         146.2529  140.8931  155.6786 C.3     1  UNL1        0.1004
     11 N         147.4108  141.8440  155.7502 N.3     1  UNL1       -0.2675
     12 C         147.5021  142.8312  156.8758 C.3     1  UNL1        0.0787
     13 C         146.4355  142.8675  157.9299 C.3     1  UNL1        0.0627
     14 C         141.4384  137.2605  155.7755 C.2     1  UNL1        0.2490
     15 O         140.4066  137.5603  154.7289 O.2     1  UNL1       -0.2699
     16 N         141.8645  135.8440  156.0245 N.am    1  UNL1       -0.2761
     17 C         142.8964  135.5442  157.0711 C.3     1  UNL1        0.0937
     18 C         143.3225  134.1277  157.3202 C.3     1  UNL1        0.0216
     19 C         142.7167  133.0110  156.5225 C.3     1  UNL1        0.0034
     20 C         143.1428  131.5945  156.7715 C.3     1  UNL1        0.0001
     21 C         141.6849  133.3109  155.4759 C.3     1  UNL1        0.0216
     22 C         141.2588  134.7274  155.2269 C.3     1  UNL1        0.0937
     23 C         148.4774  141.8077  154.6960 C.3     1  UNL1        0.0900
     24 C         148.2790  142.0654  153.2317 C.3     1  UNL1        0.0506
     25 C         149.6086  141.9243  152.5519 C.3     1  UNL1        0.1437
     26 O         150.6288  141.5794  153.5961 O.3     1  UNL1       -0.3523
     27 C         149.9296  141.5074  154.9213 C.3     1  UNL1        0.1580
     28 S         143.7744  142.4951  159.9915 S.O2    1  UNL1        0.0660
     29 O         144.3737  141.3996  160.8227 O.2     1  UNL1       -0.1521
     30 O         143.1751  143.5905  159.1604 O.2     1  UNL1       -0.1521
     31 C         144.4565  143.3121  162.3616 C.3     1  UNL1        0.0294
     32 C         143.4643  143.2707  161.2374 C.3     1  UNL1        0.1752
@<TRIPOS>BOND
     1    31    32    1
     2    32    28    1
     3    28    29    2
     4    28    30    2
     5    28     1    1
     6     1     2   ar
     7     2     3   ar
     8     3     4   ar
     9     4     5   ar
    10     5     6   ar
    11     6    14    1
    12    14    15    2
    13    14    16   am
    14    16    17    1
    15    17    18    1
    16    18    19    1
    17    19    20    1
    18    19    21    1
    19    21    22    1
    20     6     7   ar
    21     7     8   ar
    22     8     9   ar
    23     3    10    1
    24    10    11    1
    25    11    23    1
    26    23    24    1
    27    24    25    1
    28    25    26    1
    29    26    27    1
    30    11    12    1
    31    12    13    1
    32     9     1   ar
    33    27    23    1
    34    13     2    1
    35     9     4   ar
    36    22    16    1
@<TRIPOS>MOLECULE
*****
 32 36 0 0 0
SMALL
GASTEIGER

@<TRIPOS>ATOM
      1 N         140.2962  137.7613  155.8120 N.ar    1  UNL1       -0.2172
      2 C         141.0362  136.4568  155.7848 C.ar    1  UNL1        0.0586
      3 C         142.1299  136.5231  156.8092 C.ar    1  UNL1        0.0088
      4 C         142.0658  137.8685  157.4694 C.ar    1  UNL1        0.0161
      5 C         142.8931  138.4955  158.5522 C.ar    1  UNL1        0.0058
      6 C         142.5869  139.8879  159.0186 C.ar    1  UNL1        0.0537
      7 C         141.4536  140.6531  158.4023 C.ar    1  UNL1        0.0061
      8 C         140.6263  140.0261  157.3195 C.ar    1  UNL1        0.0191
      9 C         140.9325  138.6337  156.8531 C.ar    1  UNL1        0.0815
     10 C         143.0429  135.3498  157.0085 C.3     1  UNL1        0.1004
     11 N         142.8622  134.1102  156.1833 N.3     1  UNL1       -0.2675
     12 C         141.7685  134.0439  155.1590 C.3     1  UNL1        0.0787
     13 C         140.8555  135.2173  154.9597 C.3     1  UNL1        0.0627
     14 C         143.4142  140.5151  160.1015 C.2     1  UNL1        0.2490
     15 O         144.2970  141.6864  159.7876 O.2     1  UNL1       -0.2699
     16 N         143.3585  139.9708  161.4981 N.am    1  UNL1       -0.2761
     17 C         142.4756  138.7994  161.8120 C.3     1  UNL1        0.0937
     18 C         142.4200  138.2552  163.2087 C.3     1  UNL1        0.0216
     19 C         143.2472  138.8824  164.2915 C.3     1  UNL1        0.0034
     20 C         143.1915  138.3382  165.6882 C.3     1  UNL1        0.0001
     21 C         144.1300  140.0537  163.9776 C.3     1  UNL1        0.0216
     22 C         144.1857  140.5979  162.5809 C.3     1  UNL1        0.0937
     23 C         143.7753  132.9368  156.3826 C.3     1  UNL1        0.0900
     24 C         144.0156  131.8297  155.3995 C.3     1  UNL1        0.0506
     25 C         144.9971  130.8733  156.0094 C.3     1  UNL1        0.1437
     26 O         145.3634  131.3894  157.3693 O.3     1  UNL1       -0.3523
     27 C         144.6082  132.6647  157.6000 C.3     1  UNL1        0.1580
     28 S         139.1253  138.1288  154.9494 S.O2    1  UNL1        0.0660
     29 O         140.0107  139.0163  154.1258 O.2     1  UNL1       -0.1521
     30 O         138.2399  137.2413  155.7730 O.2     1  UNL1       -0.1521
     31 C         137.2522  137.4405  153.2857 C.3     1  UNL1        0.0294
     32 C         137.9545  138.4964  154.0868 C.3     1  UNL1        0.1752
@<TRIPOS>BOND
     1    31    32    1
     2    32    28    1
     3    28    29    2
     4    28    30    2
     5    28     1    1
     6     1     2   ar
     7     2     3   ar
     8     3     4   ar
     9     4     5   ar
    10     5     6   ar
    11     6    14    1
    12    14    15    2
    13    14    16   am
    14    16    17    1
    15    17    18    1
    16    18    19    1
    17    19    20    1
    18    19    21    1
    19    21    22    1
    20     6     7   ar
    21     7     8   ar
    22     8     9   ar
    23     3    10    1
    24    10    11    1
    25    11    23    1
    26    23    24    1
    27    24    25    1
    28    25    26    1
    29    26    27    1
    30    11    12    1
    31    12    13    1
    32     9     1   ar
    33    27    23    1
    34    13     2    1
    35     9     4   ar
    36    22    16    1
@<TRIPOS>MOLECULE
*****
 32 36 0 0 0
SMALL
GASTEIGER

@<TRIPOS>ATOM
      1 N         139.6241  145.5895  155.5572 N.ar    1  UNL1       -0.2172
      2 C         138.5794  144.5436  155.3032 C.ar    1  UNL1        0.0586
      3 C         138.5926  143.5855  156.4573 C.ar    1  UNL1        0.0088
      4 C         139.6455  144.0393  157.4245 C.ar    1  UNL1        0.0161
      5 C         140.1060  143.4847  158.7399 C.ar    1  UNL1        0.0058
      6 C         141.2041  144.1687  159.4990 C.ar    1  UNL1        0.0537
      7 C         141.8417  145.4073  158.9427 C.ar    1  UNL1        0.0061
      8 C         141.3811  145.9619  157.6273 C.ar    1  UNL1        0.0191
      9 C         140.2830  145.2779  156.8682 C.ar    1  UNL1        0.0815
     10 C         137.6441  142.4237  156.4783 C.3     1  UNL1        0.1004
     11 N         136.6825  142.2199  155.3452 N.3     1  UNL1       -0.2675
     12 C         136.6693  143.1780  154.1912 C.3     1  UNL1        0.0787
     13 C         137.6178  144.3399  154.1702 C.3     1  UNL1        0.0627
     14 C         141.6647  143.6141  160.8145 C.2     1  UNL1        0.2490
     15 O         142.8773  142.7332  160.8737 O.2     1  UNL1       -0.2699
     16 N         140.9126  143.9405  162.0706 N.am    1  UNL1       -0.2761
     17 C         139.7000  144.8214  162.0113 C.3     1  UNL1        0.0937
     18 C         138.9479  145.1478  163.2674 C.3     1  UNL1        0.0216
     19 C         139.4085  144.5932  164.5829 C.3     1  UNL1        0.0034
     20 C         138.6564  144.9195  165.8390 C.3     1  UNL1        0.0001
     21 C         140.6211  143.7123  164.6421 C.3     1  UNL1        0.0216
     22 C         141.3732  143.3859  163.3860 C.3     1  UNL1        0.0937
     23 C         135.7340  141.0579  155.3663 C.3     1  UNL1        0.0900
     24 C         134.2656  141.1238  155.6651 C.3     1  UNL1        0.0506
     25 C         133.7115  139.7327  155.5757 C.3     1  UNL1        0.1437
     26 O         134.8376  138.8072  155.2216 O.3     1  UNL1       -0.3523
     27 C         136.0876  139.6262  155.0922 C.3     1  UNL1        0.1580
     28 S         139.9524  146.7444  154.6581 S.O2    1  UNL1        0.0660
     29 O         138.8771  147.5599  155.3129 O.2     1  UNL1       -0.1521
     30 O         141.0277  145.9290  154.0033 O.2     1  UNL1       -0.1521
     31 C         139.7108  149.2574  154.0439 C.3     1  UNL1        0.0294
     32 C         140.2807  147.8994  153.7589 C.3     1  UNL1        0.1752
@<TRIPOS>BOND
     1    31    32    1
     2    32    28    1
     3    28    29    2
     4    28    30    2
     5    28     1    1
     6     1     2   ar
     7     2     3   ar
     8     3     4   ar
     9     4     5   ar
    10     5     6   ar
    11     6    14    1
    12    14    15    2
    13    14    16   am
    14    16    17    1
    15    17    18    1
    16    18    19    1
    17    19    20    1
    18    19    21    1
    19    21    22    1
    20     6     7   ar
    21     7     8   ar
    22     8     9   ar
    23     3    10    1
    24    10    11    1
    25    11    23    1
    26    23    24    1
    27    24    25    1
    28    25    26    1
    29    26    27    1
    30    11    12    1
    31    12    13    1
    32     9     1   ar
    33    27    23    1
    34    13     2    1
    35     9     4   ar
    36    22    16    1
@<TRIPOS>MOLECULE
*****
 32 36 0 0 0
SMALL
GASTEIGER

@<TRIPOS>ATOM
      1 N         142.6622  141.8212  162.2843 N.ar    1  UNL1       -0.2172
      2 C         141.7451  141.2043  163.2984 C.ar    1  UNL1        0.0586
      3 C         141.2193  139.9207  162.7275 C.ar    1  UNL1        0.0088
      4 C         141.8114  139.7442  161.3607 C.ar    1  UNL1        0.0161
      5 C         141.6538  138.6658  160.3302 C.ar    1  UNL1        0.0058
      6 C         142.3880  138.7619  159.0257 C.ar    1  UNL1        0.0537
      7 C         143.2798  139.9364  158.7518 C.ar    1  UNL1        0.0061
      8 C         143.4374  141.0149  159.7823 C.ar    1  UNL1        0.0191
      9 C         142.7032  140.9188  161.0868 C.ar    1  UNL1        0.0815
     10 C         140.2692  139.0784  163.5261 C.3     1  UNL1        0.1004
     11 N         139.8449  139.5197  164.8956 N.3     1  UNL1       -0.2675
     12 C         140.3707  140.8033  165.4664 C.3     1  UNL1        0.0787
     13 C         141.3208  141.6456  164.6678 C.3     1  UNL1        0.0627
     14 C         142.2304  137.6834  157.9951 C.2     1  UNL1        0.2490
     15 O         143.2154  136.5538  157.9349 O.2     1  UNL1       -0.2699
     16 N         141.0877  137.7345  157.0247 N.am    1  UNL1       -0.2761
     17 C         140.1026  138.8642  157.0849 C.3     1  UNL1        0.0937
     18 C         138.9599  138.9154  156.1145 C.3     1  UNL1        0.0216
     19 C         138.8023  137.8369  155.0839 C.3     1  UNL1        0.0034
     20 C         137.6597  137.8881  154.1135 C.3     1  UNL1        0.0001
     21 C         139.7874  136.7073  155.0238 C.3     1  UNL1        0.0216
     22 C         140.9301  136.6561  155.9942 C.3     1  UNL1        0.0937
     23 C         138.8947  138.6773  165.6942 C.3     1  UNL1        0.0900
     24 C         138.1038  139.1291  166.8859 C.3     1  UNL1        0.0506
     25 C         137.2890  137.9662  167.3694 C.3     1  UNL1        0.1437
     26 O         137.5764  136.7957  166.4766 O.3     1  UNL1       -0.3523
     27 C         138.5688  137.2352  165.4412 C.3     1  UNL1        0.1580
     28 S         143.4075  143.1135  162.4403 S.O2    1  UNL1        0.0660
     29 O         144.5236  142.3866  163.1301 O.2     1  UNL1       -0.1521
     30 O         142.2915  143.8405  161.7506 O.2     1  UNL1       -0.1521
     31 C         143.8137  145.3361  163.7232 C.3     1  UNL1        0.0294
     32 C         144.1529  144.4058  162.5964 C.3     1  UNL1        0.1752
@<TRIPOS>BOND
     1    31    32    1
     2    32    28    1
     3    28    29    2
     4    28    30    2
     5    28     1    1
     6     1     2   ar
     7     2     3   ar
     8     3     4   ar
     9     4     5   ar
    10     5     6   ar
    11     6    14    1
    12    14    15    2
    13    14    16   am
    14    16    17    1
    15    17    18    1
    16    18    19    1
    17    19    20    1
    18    19    21    1
    19    21    22    1
    20     6     7   ar
    21     7     8   ar
    22     8     9   ar
    23     3    10    1
    24    10    11    1
    25    11    23    1
    26    23    24    1
    27    24    25    1
    28    25    26    1
    29    26    27    1
    30    11    12    1
    31    12    13    1
    32     9     1   ar
    33    27    23    1
    34    13     2    1
    35     9     4   ar
    36    22    16    1
@<TRIPOS>MOLECULE
*****
 32 36 0 0 0
SMALL
GASTEIGER

@<TRIPOS>ATOM
      1 N         141.8921  137.9883  155.6938 N.ar    1  UNL1       -0.2172
      2 C         142.3728  136.5706  155.5984 C.ar    1  UNL1        0.0586
      3 C         142.8314  136.1440  156.9614 C.ar    1  UNL1        0.0088
      4 C         142.6340  137.2980  157.8991 C.ar    1  UNL1        0.0161
      5 C         142.9079  137.4581  159.3652 C.ar    1  UNL1        0.0058
      6 C         142.6013  138.7581  160.0478 C.ar    1  UNL1        0.0537
      7 C         142.0208  139.8979  159.2644 C.ar    1  UNL1        0.0061
      8 C         141.7469  139.7378  157.7983 C.ar    1  UNL1        0.0191
      9 C         142.0535  138.4378  157.1157 C.ar    1  UNL1        0.0815
     10 C         143.3694  134.7598  157.1725 C.3     1  UNL1        0.1004
     11 N         143.4489  133.8023  156.0206 N.3     1  UNL1       -0.2675
     12 C         142.9903  134.2289  154.6576 C.3     1  UNL1        0.0787
     13 C         142.4523  135.6130  154.4465 C.3     1  UNL1        0.0627
     14 C         142.8752  138.9182  161.5139 C.2     1  UNL1        0.2490
     15 O         144.2002  139.4482  161.9758 O.2     1  UNL1       -0.2699
     16 N         141.8241  138.5484  162.5180 N.am    1  UNL1       -0.2761
     17 C         140.4990  138.0183  162.0560 C.3     1  UNL1        0.0937
     18 C         139.4478  137.6485  163.0602 C.3     1  UNL1        0.0216
     19 C         139.7217  137.8086  164.5263 C.3     1  UNL1        0.0034
     20 C         138.6706  137.4388  165.5304 C.3     1  UNL1        0.0001
     21 C         141.0467  138.3387  164.9882 C.3     1  UNL1        0.0216
     22 C         142.0979  138.7085  163.9841 C.3     1  UNL1        0.0937
     23 C         143.9869  132.4180  156.2317 C.3     1  UNL1        0.0900
     24 C         144.1320  131.3585  155.1799 C.3     1  UNL1        0.0506
     25 C         144.7091  130.1361  155.8299 C.3     1  UNL1        0.1437
     26 O         144.9206  130.4401  157.2835 O.3     1  UNL1       -0.3523
     27 C         144.4743  131.8504  157.5318 C.3     1  UNL1        0.1580
     28 S         141.3458  138.8118  154.5654 S.O2    1  UNL1        0.0660
     29 O         142.7202  139.3454  154.2894 O.2     1  UNL1       -0.1521
     30 O         139.9714  138.2783  154.8413 O.2     1  UNL1       -0.1521
     31 C         139.4933  139.2632  152.8005 C.3     1  UNL1        0.0294
     32 C         140.7996  139.6355  153.4369 C.3     1  UNL1        0.1752
@<TRIPOS>BOND
     1    31    32    1
     2    32    28    1
     3    28    29    2
     4    28    30    2
     5    28     1    1
     6     1     2   ar
     7     2     3   ar
     8     3     4   ar
     9     4     5   ar
    10     5     6   ar
    11     6    14    1
    12    14    15    2
    13    14    16   am
    14    16    17    1
    15    17    18    1
    16    18    19    1
    17    19    20    1
    18    19    21    1
    19    21    22    1
    20     6     7   ar
    21     7     8   ar
    22     8     9   ar
    23     3    10    1
    24    10    11    1
    25    11    23    1
    26    23    24    1
    27    24    25    1
    28    25    26    1
    29    26    27    1
    30    11    12    1
    31    12    13    1
    32     9     1   ar
    33    27    23    1
    34    13     2    1
    35     9     4   ar
    36    22    16    1
@<TRIPOS>MOLECULE
*****
 32 36 0 0 0
SMALL
GASTEIGER

@<TRIPOS>ATOM
      1 N         141.3081  143.6679  158.6476 N.ar    1  UNL1       -0.2172
      2 C         141.7188  142.4037  157.9525 C.ar    1  UNL1        0.0586
      3 C         142.0684  141.3905  159.0018 C.ar    1  UNL1        0.0088
      4 C         141.8737  142.0284  160.3454 C.ar    1  UNL1        0.0161
      5 C         142.0635  141.5094  161.7399 C.ar    1  UNL1        0.0058
      6 C         141.7835  142.3980  162.9154 C.ar    1  UNL1        0.0537
      7 C         141.3136  143.8056  162.6965 C.ar    1  UNL1        0.0061
      8 C         141.1237  144.3245  161.3020 C.ar    1  UNL1        0.0191
      9 C         141.4037  143.4359  160.1265 C.ar    1  UNL1        0.0815
     10 C         142.5189  140.0178  158.5983 C.3     1  UNL1        0.1004
     11 N         142.6198  139.6584  157.1455 N.3     1  UNL1       -0.2675
     12 C         142.2702  140.6717  156.0962 C.3     1  UNL1        0.0787
     13 C         141.8197  142.0443  156.4997 C.3     1  UNL1        0.0627
     14 C         141.9734  141.8791  164.3100 C.2     1  UNL1        0.2490
     15 O         143.2424  142.1735  165.0535 O.2     1  UNL1       -0.2699
     16 N         140.8942  141.0657  164.9609 N.am    1  UNL1       -0.2761
     17 C         139.6251  140.7713  164.2174 C.3     1  UNL1        0.0937
     18 C         138.5459  139.9580  164.8683 C.3     1  UNL1        0.0216
     19 C         138.7357  139.4390  166.2629 C.3     1  UNL1        0.0034
     20 C         137.6565  138.6257  166.9139 C.3     1  UNL1        0.0001
     21 C         140.0048  139.7334  167.0064 C.3     1  UNL1        0.0216
     22 C         141.0840  140.5468  166.3554 C.3     1  UNL1        0.0937
     23 C         143.0703  138.2856  156.7420 C.3     1  UNL1        0.0900
     24 C         143.9363  137.9528  155.5634 C.3     1  UNL1        0.0506
     25 C         144.1350  136.4663  155.5393 C.3     1  UNL1        0.1437
     26 O         143.3918  135.8804  156.7031 O.3     1  UNL1       -0.3523
     27 C         142.7338  137.0048  157.4464 C.3     1  UNL1        0.1580
     28 S         140.8772  144.9406  157.9809 S.O2    1  UNL1        0.0660
     29 O         139.5165  144.3557  157.7436 O.2     1  UNL1       -0.1521
     30 O         142.2378  145.5256  158.2182 O.2     1  UNL1       -0.1521
     31 C         139.5867  146.1629  156.0859 C.3     1  UNL1        0.0294
     32 C         140.4463  146.2134  157.3141 C.3     1  UNL1        0.1752
@<TRIPOS>BOND
     1    31    32    1
     2    32    28    1
     3    28    29    2
     4    28    30    2
     5    28     1    1
     6     1     2   ar
     7     2     3   ar
     8     3     4   ar
     9     4     5   ar
    10     5     6   ar
    11     6    14    1
    12    14    15    2
    13    14    16   am
    14    16    17    1
    15    17    18    1
    16    18    19    1
    17    19    20    1
    18    19    21    1
    19    21    22    1
    20     6     7   ar
    21     7     8   ar
    22     8     9   ar
    23     3    10    1
    24    10    11    1
    25    11    23    1
    26    23    24    1
    27    24    25    1
    28    25    26    1
    29    26    27    1
    30    11    12    1
    31    12    13    1
    32     9     1   ar
    33    27    23    1
    34    13     2    1
    35     9     4   ar
    36    22    16    1
@<TRIPOS>MOLECULE
*****
 32 36 0 0 0
SMALL
GASTEIGER

@<TRIPOS>ATOM
      1 N         139.2906  140.1258  157.2753 N.ar    1  UNL1       -0.2172
      2 C         139.7732  138.8231  156.7095 C.ar    1  UNL1        0.0586
      3 C         141.0651  138.4738  157.3869 C.ar    1  UNL1        0.0088
      4 C         141.3810  139.5606  158.3714 C.ar    1  UNL1        0.0161
      5 C         142.5255  139.7523  159.3217 C.ar    1  UNL1        0.0058
      6 C         142.5734  140.9651  160.2031 C.ar    1  UNL1        0.0537
      7 C         141.4766  141.9861  160.1341 C.ar    1  UNL1        0.0061
      8 C         140.3321  141.7943  159.1838 C.ar    1  UNL1        0.0191
      9 C         140.2842  140.5816  158.3024 C.ar    1  UNL1        0.0815
     10 C         141.7870  137.2113  157.0197 C.3     1  UNL1        0.1004
     11 N         141.2169  136.2980  155.9752 N.3     1  UNL1       -0.2675
     12 C         139.9250  136.6474  155.2978 C.3     1  UNL1        0.0787
     13 C         139.2031  137.9099  155.6649 C.3     1  UNL1        0.0627
     14 C         143.7180  141.1569  161.1535 C.2     1  UNL1        0.2490
     15 O         144.8329  142.0977  160.8045 O.2     1  UNL1       -0.2699
     16 N         143.7475  140.4080  162.4528 N.am    1  UNL1       -0.2761
     17 C         142.6325  139.4672  162.8017 C.3     1  UNL1        0.0937
     18 C         142.6621  138.7182  164.1010 C.3     1  UNL1        0.0216
     19 C         143.8067  138.9101  165.0514 C.3     1  UNL1        0.0034
     20 C         143.8362  138.1611  166.3507 C.3     1  UNL1        0.0001
     21 C         144.9216  139.8508  164.7024 C.3     1  UNL1        0.0216
     22 C         144.8921  140.5998  163.4031 C.3     1  UNL1        0.0937
     23 C         141.9389  135.0354  155.6080 C.3     1  UNL1        0.0900
     24 C         141.7240  134.2271  154.3629 C.3     1  UNL1        0.0506
     25 C         142.6548  133.0517  154.4070 C.3     1  UNL1        0.1437
     26 O         143.4449  133.1335  155.6793 O.3     1  UNL1       -0.3523
     27 C         143.0024  134.3596  156.4217 C.3     1  UNL1        0.1580
     28 S         138.0348  140.8462  156.8830 S.O2    1  UNL1        0.0660
     29 O         138.7540  141.4682  155.7229 O.2     1  UNL1       -0.1521
     30 O         137.3155  140.2244  158.0430 O.2     1  UNL1       -0.1521
     31 C         136.8612  142.9003  155.8088 C.3     1  UNL1        0.0294
     32 C         136.7790  141.5667  156.4906 C.3     1  UNL1        0.1752
@<TRIPOS>BOND
     1    31    32    1
     2    32    28    1
     3    28    29    2
     4    28    30    2
     5    28     1    1
     6     1     2   ar
     7     2     3   ar
     8     3     4   ar
     9     4     5   ar
    10     5     6   ar
    11     6    14    1
    12    14    15    2
    13    14    16   am
    14    16    17    1
    15    17    18    1
    16    18    19    1
    17    19    20    1
    18    19    21    1
    19    21    22    1
    20     6     7   ar
    21     7     8   ar
    22     8     9   ar
    23     3    10    1
    24    10    11    1
    25    11    23    1
    26    23    24    1
    27    24    25    1
    28    25    26    1
    29    26    27    1
    30    11    12    1
    31    12    13    1
    32     9     1   ar
    33    27    23    1
    34    13     2    1
    35     9     4   ar
    36    22    16    1
@<TRIPOS>MOLECULE
*****
 32 36 0 0 0
SMALL
GASTEIGER

@<TRIPOS>ATOM
      1 N         142.3467  138.7181  157.5921 N.ar    1  UNL1       -0.2172
      2 C         141.8872  140.0772  157.1543 C.ar    1  UNL1        0.0586
      3 C         141.7308  140.9301  158.3782 C.ar    1  UNL1        0.0088
      4 C         142.0937  140.0982  159.5725 C.ar    1  UNL1        0.0161
      5 C         142.1267  140.4089  161.0396 C.ar    1  UNL1        0.0058
      6 C         142.5403  139.3525  162.0208 C.ar    1  UNL1        0.0537
      7 C         142.9210  137.9854  161.5349 C.ar    1  UNL1        0.0061
      8 C         142.8880  137.6747  160.0679 C.ar    1  UNL1        0.0191
      9 C         142.4744  138.7311  159.0867 C.ar    1  UNL1        0.0815
     10 C         141.2781  142.3541  158.2471 C.3     1  UNL1        0.1004
     11 N         140.9818  142.9252  156.8921 N.3     1  UNL1       -0.2675
     12 C         141.1382  142.0723  155.6682 C.3     1  UNL1        0.0787
     13 C         141.5909  140.6482  155.7993 C.3     1  UNL1        0.0627
     14 C         142.5734  139.6632  163.4879 C.2     1  UNL1        0.2490
     15 O         143.8177  140.2268  164.1074 O.2     1  UNL1       -0.2699
     16 N         141.3619  139.4102  164.3355 N.am    1  UNL1       -0.2761
     17 C         140.1175  138.8466  163.7160 C.3     1  UNL1        0.0937
     18 C         138.9061  138.5936  164.5636 C.3     1  UNL1        0.0216
     19 C         138.9391  138.9043  166.0308 C.3     1  UNL1        0.0034
     20 C         137.7277  138.6514  166.8784 C.3     1  UNL1        0.0001
     21 C         140.1835  139.4679  166.6502 C.3     1  UNL1        0.0216
     22 C         141.3949  139.7209  165.8026 C.3     1  UNL1        0.0937
     23 C         140.5292  144.3493  156.7610 C.3     1  UNL1        0.0900
     24 C         140.2428  145.0687  155.4764 C.3     1  UNL1        0.0506
     25 C         139.8200  146.4680  155.8130 C.3     1  UNL1        0.1437
     26 O         139.8452  146.6133  157.3058 O.3     1  UNL1       -0.3523
     27 C         140.2835  145.3039  157.8917 C.3     1  UNL1        0.1580
     28 S         142.6291  137.5509  156.6933 S.O2    1  UNL1        0.0660
     29 O         141.2386  137.0373  156.9234 O.2     1  UNL1       -0.1521
     30 O         144.0194  138.0644  156.4632 O.2     1  UNL1       -0.1521
     31 C         143.7477  135.2410  156.2892 C.3     1  UNL1        0.0294
     32 C         142.9114  136.3836  155.7944 C.3     1  UNL1        0.1752
@<TRIPOS>BOND
     1    31    32    1
     2    32    28    1
     3    28    29    2
     4    28    30    2
     5    28     1    1
     6     1     2   ar
     7     2     3   ar
     8     3     4   ar
     9     4     5   ar
    10     5     6   ar
    11     6    14    1
    12    14    15    2
    13    14    16   am
    14    16    17    1
    15    17    18    1
    16    18    19    1
    17    19    20    1
    18    19    21    1
    19    21    22    1
    20     6     7   ar
    21     7     8   ar
    22     8     9   ar
    23     3    10    1
    24    10    11    1
    25    11    23    1
    26    23    24    1
    27    24    25    1
    28    25    26    1
    29    26    27    1
    30    11    12    1
    31    12    13    1
    32     9     1   ar
    33    27    23    1
    34    13     2    1
    35     9     4   ar
    36    22    16    1
