@<TRIPOS>MOLECULE
*****
 35 39 0 0 0
SMALL
GASTEIGER

@<TRIPOS>ATOM
      1 N         141.4319  142.4278  166.6813 N.3     1  UNL1       -0.2724
      2 C         142.2073  142.7494  165.4381 C.3     1  UNL1        0.0721
      3 C         141.3789  143.6802  164.6029 C.3     1  UNL1        0.0187
      4 C         140.0916  143.9338  165.3298 C.3     1  UNL1        0.0178
      5 C         140.1244  143.1598  166.6143 C.3     1  UNL1        0.0721
      6 C         141.8846  141.5316  167.7956 C.3     1  UNL1        0.0768
      7 C         141.1152  140.2840  168.1144 C.3     1  UNL1        0.0439
      8 C         140.4423  139.5164  167.0152 C.ar    1  UNL1       -0.0178
      9 C         138.9450  139.4536  166.9522 C.ar    1  UNL1       -0.0040
     10 C         138.2722  138.6860  165.8530 C.ar    1  UNL1        0.0028
     11 C         139.0967  137.9811  164.8170 C.ar    1  UNL1        0.0369
     12 C         140.5940  138.0439  164.8801 C.ar    1  UNL1        0.1383
     13 C         141.2669  138.8115  165.9792 C.ar    1  UNL1        0.0327
     14 O         141.4186  137.3390  163.8441 O.3     1  UNL1       -0.4740
     15 C         142.3267  138.1254  162.9460 C.3     1  UNL1        0.2246
     16 C         142.3189  138.4983  161.4930 C.3     1  UNL1        0.1882
     17 O         143.6111  139.2377  161.6759 O.3     1  UNL1       -0.3459
     18 C         143.6190  138.8649  163.1288 C.3     1  UNL1        0.1882
     19 C         141.0187  139.8041  169.5323 C.3     1  UNL1        0.0474
     20 O         138.6852  140.7074  170.2317 O.co2   1  UNL1       -0.5492
     21 C         140.1483  140.5324  170.5130 C.2     1  UNL1        0.0507
     22 O         140.7408  141.0858  171.7750 O.co2   1  UNL1       -0.5492
     23 C         138.9687  144.8079  164.8556 C.3     1  UNL1        0.0077
     24 C         137.7156  144.1893  164.3105 C.3     1  UNL1        0.0459
     25 C         137.8015  143.1249  163.2571 C.ar    1  UNL1        0.0603
     26 C         137.6164  141.6838  163.6301 C.ar    1  UNL1        0.0145
     27 C         137.7022  140.6194  162.5768 C.ar    1  UNL1       -0.0003
     28 C         137.9731  140.9960  161.1503 C.ar    1  UNL1        0.0092
     29 C         138.1582  142.4371  160.7772 C.ar    1  UNL1        0.1240
     30 N         138.0723  143.5015  161.8307 N.ar    1  UNL1       -0.2356
     31 N         138.4291  142.8137  159.3508 N.pl3   1  UNL1       -0.3184
     32 C         138.5149  141.7493  158.2974 C.3     1  UNL1        0.0885
     33 C         138.3298  140.3083  158.6705 C.3     1  UNL1        0.0260
     34 C         138.0590  139.9316  160.0969 C.3     1  UNL1        0.0309
     35 H         138.5505  143.7595  159.1059 H       1  UNL1        0.1482
@<TRIPOS>UNITY_ATOM_ATTR
20 1
charge -1
@<TRIPOS>BOND
     1    20    21   ar
     2    21    22   ar
     3    21    19    1
     4     7    19    1
     5     7     6    1
     6     6     1    1
     7     1     2    1
     8     2     3    1
     9     3     4    1
    10     4    23    1
    11    23    24    1
    12    24    25    1
    13    25    26   ar
    14    26    27   ar
    15    27    28   ar
    16    28    29   ar
    17    29    30   ar
    18    29    31    1
    19    31    32    1
    20    32    33    1
    21    33    34    1
    22     4     5    1
    23     7     8    1
    24     8     9   ar
    25     9    10   ar
    26    10    11   ar
    27    11    12   ar
    28    12    14    1
    29    14    15    1
    30    15    16    1
    31    16    17    1
    32    17    18    1
    33    12    13   ar
    34     5     1    1
    35    13     8   ar
    36    30    25   ar
    37    18    15    1
    38    34    28    1
    39    31    35    1
@<TRIPOS>MOLECULE
*****
 35 39 0 0 0
SMALL
GASTEIGER

@<TRIPOS>ATOM
      1 N         138.1092  141.1502  164.3275 N.3     1  UNL1       -0.2724
      2 C         137.4707  141.3230  162.9811 C.3     1  UNL1        0.0721
      3 C         137.7205  142.7305  162.5269 C.3     1  UNL1        0.0187
      4 C         138.5133  143.4277  163.5924 C.3     1  UNL1        0.0178
      5 C         138.7535  142.4510  164.7053 C.3     1  UNL1        0.0721
      6 C         138.1041  139.8967  165.1513 C.3     1  UNL1        0.0768
      7 C         139.1429  138.8404  164.9161 C.3     1  UNL1        0.0439
      8 C         140.4838  138.9461  165.5802 C.ar    1  UNL1       -0.0178
      9 C         141.6558  138.1901  165.0281 C.ar    1  UNL1       -0.0040
     10 C         142.9966  138.2958  165.6922 C.ar    1  UNL1        0.0028
     11 C         143.1654  139.1575  166.9083 C.ar    1  UNL1        0.0369
     12 C         141.9934  139.9135  167.4604 C.ar    1  UNL1        0.1383
     13 C         140.6526  139.8078  166.7963 C.ar    1  UNL1        0.0327
     14 O         142.1622  140.7753  168.6765 O.3     1  UNL1       -0.4740
     15 C         140.9589  141.2175  169.4552 C.3     1  UNL1        0.2246
     16 C         140.2503  142.5233  169.6619 C.3     1  UNL1        0.1882
     17 O         139.2571  141.8428  170.5565 O.3     1  UNL1       -0.3459
     18 C         139.9656  140.5370  170.3498 C.3     1  UNL1        0.1882
     19 C         138.8407  137.6785  164.0169 C.3     1  UNL1        0.0474
     20 O         140.2448  137.6726  161.8308 O.co2   1  UNL1       -0.5492
     21 C         138.9272  137.8400  162.5281 C.2     1  UNL1        0.0507
     22 O         137.6962  138.1689  161.7366 O.co2   1  UNL1       -0.5492
     23 C         138.9833  144.8515  163.5522 C.3     1  UNL1        0.0077
     24 C         140.2545  145.2017  162.8371 C.3     1  UNL1        0.0459
     25 C         141.5268  144.4816  163.1730 C.ar    1  UNL1        0.0603
     26 C         142.5962  145.1768  163.9623 C.ar    1  UNL1        0.0145
     27 C         143.8685  144.4568  164.2982 C.ar    1  UNL1       -0.0003
     28 C         144.0714  143.0414  163.8446 C.ar    1  UNL1        0.0092
     29 C         143.0020  142.3462  163.0553 C.ar    1  UNL1        0.1240
     30 N         141.7297  143.0663  162.7195 N.ar    1  UNL1       -0.2356
     31 N         143.2049  140.9309  162.6018 N.pl3   1  UNL1       -0.3184
     32 C         144.4772  140.2108  162.9376 C.3     1  UNL1        0.0885
     33 C         145.5466  140.9061  163.7270 C.3     1  UNL1        0.0260
     34 C         145.3437  142.3214  164.1805 C.3     1  UNL1        0.0309
     35 H         142.5031  140.4745  162.0837 H       1  UNL1        0.1482
@<TRIPOS>UNITY_ATOM_ATTR
20 1
charge -1
@<TRIPOS>BOND
     1    20    21   ar
     2    21    22   ar
     3    21    19    1
     4     7    19    1
     5     7     6    1
     6     6     1    1
     7     1     2    1
     8     2     3    1
     9     3     4    1
    10     4    23    1
    11    23    24    1
    12    24    25    1
    13    25    26   ar
    14    26    27   ar
    15    27    28   ar
    16    28    29   ar
    17    29    30   ar
    18    29    31    1
    19    31    32    1
    20    32    33    1
    21    33    34    1
    22     4     5    1
    23     7     8    1
    24     8     9   ar
    25     9    10   ar
    26    10    11   ar
    27    11    12   ar
    28    12    14    1
    29    14    15    1
    30    15    16    1
    31    16    17    1
    32    17    18    1
    33    12    13   ar
    34     5     1    1
    35    13     8   ar
    36    30    25   ar
    37    18    15    1
    38    34    28    1
    39    31    35    1
@<TRIPOS>MOLECULE
*****
 35 39 0 0 0
SMALL
GASTEIGER

@<TRIPOS>ATOM
      1 N         138.3698  141.0582  164.7164 N.3     1  UNL1       -0.2724
      2 C         138.2151  140.1511  165.9011 C.3     1  UNL1        0.0721
      3 C         138.5909  138.7631  165.4743 C.3     1  UNL1        0.0187
      4 C         138.9778  138.8122  164.0259 C.3     1  UNL1        0.0178
      5 C         138.8412  140.2307  163.5575 C.3     1  UNL1        0.0721
      6 C         138.1005  142.5336  164.6945 C.3     1  UNL1        0.0768
      7 C         139.2025  143.5020  165.0077 C.3     1  UNL1        0.0439
      8 C         140.3552  143.0740  165.8669 C.ar    1  UNL1       -0.0178
      9 C         141.6982  142.8211  165.2486 C.ar    1  UNL1       -0.0040
     10 C         142.8508  142.3932  166.1078 C.ar    1  UNL1        0.0028
     11 C         142.6605  142.2183  167.5854 C.ar    1  UNL1        0.0369
     12 C         141.3175  142.4712  168.2037 C.ar    1  UNL1        0.1383
     13 C         140.1649  142.8991  167.3445 C.ar    1  UNL1        0.0327
     14 O         141.1271  142.2963  169.6813 O.3     1  UNL1       -0.4740
     15 C         140.3375  141.1326  170.2031 C.3     1  UNL1        0.2246
     16 C         138.9725  140.5713  169.9351 C.3     1  UNL1        0.1882
     17 O         139.2209  139.4869  170.9412 O.3     1  UNL1       -0.3459
     18 C         140.5858  140.0481  171.2093 C.3     1  UNL1        0.1882
     19 C         139.1517  144.8981  164.4617 C.3     1  UNL1        0.0474
     20 O         138.6030  145.1347  161.9332 O.co2   1  UNL1       -0.5492
     21 C         139.5977  145.1702  163.0555 C.2     1  UNL1        0.0507
     22 O         141.0381  145.4777  162.7717 O.co2   1  UNL1       -0.5492
     23 C         139.4231  137.6475  163.1923 C.3     1  UNL1        0.0077
     24 C         140.8217  137.1217  163.3246 C.3     1  UNL1        0.0459
     25 C         141.9623  138.0711  163.5436 C.ar    1  UNL1        0.0603
     26 C         142.7117  138.0561  164.8429 C.ar    1  UNL1        0.0145
     27 C         143.8522  139.0054  165.0618 C.ar    1  UNL1       -0.0003
     28 C         144.2434  139.9697  163.9815 C.ar    1  UNL1        0.0092
     29 C         143.4940  139.9847  162.6822 C.ar    1  UNL1        0.1240
     30 N         142.3534  139.0353  162.4632 N.ar    1  UNL1       -0.2356
     31 N         143.8851  140.9490  161.6018 N.pl3   1  UNL1       -0.3184
     32 C         145.0257  141.8982  161.8208 C.3     1  UNL1        0.0885
     33 C         145.7751  141.8833  163.1201 C.3     1  UNL1        0.0260
     34 C         145.3839  140.9190  164.2004 C.3     1  UNL1        0.0309
     35 H         143.3933  140.9588  160.7491 H       1  UNL1        0.1482
@<TRIPOS>UNITY_ATOM_ATTR
20 1
charge -1
@<TRIPOS>BOND
     1    20    21   ar
     2    21    22   ar
     3    21    19    1
     4     7    19    1
     5     7     6    1
     6     6     1    1
     7     1     2    1
     8     2     3    1
     9     3     4    1
    10     4    23    1
    11    23    24    1
    12    24    25    1
    13    25    26   ar
    14    26    27   ar
    15    27    28   ar
    16    28    29   ar
    17    29    30   ar
    18    29    31    1
    19    31    32    1
    20    32    33    1
    21    33    34    1
    22     4     5    1
    23     7     8    1
    24     8     9   ar
    25     9    10   ar
    26    10    11   ar
    27    11    12   ar
    28    12    14    1
    29    14    15    1
    30    15    16    1
    31    16    17    1
    32    17    18    1
    33    12    13   ar
    34     5     1    1
    35    13     8   ar
    36    30    25   ar
    37    18    15    1
    38    34    28    1
    39    31    35    1
@<TRIPOS>MOLECULE
*****
 35 39 0 0 0
SMALL
GASTEIGER

@<TRIPOS>ATOM
      1 N         143.1059  141.6784  166.6760 N.3     1  UNL1       -0.2724
      2 C         143.6609  142.8751  165.9619 C.3     1  UNL1        0.0721
      3 C         144.2427  142.4094  164.6600 C.3     1  UNL1        0.0187
      4 C         144.0473  140.9250  164.5696 C.3     1  UNL1        0.0178
      5 C         143.3447  140.4732  165.8156 C.3     1  UNL1        0.0721
      6 C         142.4308  141.6857  168.0154 C.3     1  UNL1        0.0768
      7 C         140.9566  141.9458  168.1108 C.3     1  UNL1        0.0439
      8 C         140.0021  141.1793  167.2439 C.ar    1  UNL1       -0.0178
      9 C         139.4442  139.8701  167.7178 C.ar    1  UNL1       -0.0040
     10 C         138.4898  139.1037  166.8508 C.ar    1  UNL1        0.0028
     11 C         138.0932  139.6465  165.5099 C.ar    1  UNL1        0.0369
     12 C         138.6510  140.9558  165.0360 C.ar    1  UNL1        0.1383
     13 C         139.6055  141.7222  165.9029 C.ar    1  UNL1        0.0327
     14 O         138.2544  141.4986  163.6950 O.3     1  UNL1       -0.4740
     15 C         138.5609  142.9239  163.3425 C.3     1  UNL1        0.2246
     16 C         137.8473  144.2335  163.5033 C.3     1  UNL1        0.1882
     17 O         138.9945  144.9397  162.8439 O.3     1  UNL1       -0.3459
     18 C         139.7083  143.6303  162.6830 C.3     1  UNL1        0.1882
     19 C         140.4369  142.9724  169.0731 C.3     1  UNL1        0.0474
     20 O         140.1595  141.1546  170.9087 O.co2   1  UNL1       -0.5492
     21 C         139.9062  142.5465  170.4099 C.2     1  UNL1        0.0507
     22 O         139.1222  143.5124  171.2480 O.co2   1  UNL1       -0.5492
     23 C         144.4787  140.0466  163.4328 C.3     1  UNL1        0.0077
     24 C         143.8145  138.7191  163.2171 C.3     1  UNL1        0.0459
     25 C         142.3553  138.6572  162.8753 C.ar    1  UNL1        0.0603
     26 C         141.4839  137.6050  163.4948 C.ar    1  UNL1        0.0145
     27 C         140.0247  137.5431  163.1531 C.ar    1  UNL1       -0.0003
     28 C         139.4367  138.5333  162.1919 C.ar    1  UNL1        0.0092
     29 C         140.3081  139.5855  161.5725 C.ar    1  UNL1        0.1240
     30 N         141.7674  139.6474  161.9142 N.ar    1  UNL1       -0.2356
     31 N         139.7202  140.5757  160.6114 N.pl3   1  UNL1       -0.3184
     32 C         138.2610  140.5138  160.2697 C.3     1  UNL1        0.0885
     33 C         137.3896  139.4616  160.8891 C.3     1  UNL1        0.0260
     34 C         137.9775  138.4714  161.8502 C.3     1  UNL1        0.0309
     35 H         140.2921  141.2663  160.2048 H       1  UNL1        0.1482
@<TRIPOS>UNITY_ATOM_ATTR
20 1
charge -1
@<TRIPOS>BOND
     1    20    21   ar
     2    21    22   ar
     3    21    19    1
     4     7    19    1
     5     7     6    1
     6     6     1    1
     7     1     2    1
     8     2     3    1
     9     3     4    1
    10     4    23    1
    11    23    24    1
    12    24    25    1
    13    25    26   ar
    14    26    27   ar
    15    27    28   ar
    16    28    29   ar
    17    29    30   ar
    18    29    31    1
    19    31    32    1
    20    32    33    1
    21    33    34    1
    22     4     5    1
    23     7     8    1
    24     8     9   ar
    25     9    10   ar
    26    10    11   ar
    27    11    12   ar
    28    12    14    1
    29    14    15    1
    30    15    16    1
    31    16    17    1
    32    17    18    1
    33    12    13   ar
    34     5     1    1
    35    13     8   ar
    36    30    25   ar
    37    18    15    1
    38    34    28    1
    39    31    35    1
@<TRIPOS>MOLECULE
*****
 35 39 0 0 0
SMALL
GASTEIGER

@<TRIPOS>ATOM
      1 N         141.9845  139.5803  165.2852 N.3     1  UNL1       -0.2724
      2 C         141.9190  138.9735  163.9150 C.3     1  UNL1        0.0721
      3 C         143.1994  139.2964  163.2034 C.3     1  UNL1        0.0187
      4 C         144.0562  140.1028  164.1337 C.3     1  UNL1        0.0178
      5 C         143.3053  140.2783  165.4204 C.3     1  UNL1        0.0721
      6 C         140.9167  139.5028  166.3358 C.3     1  UNL1        0.0768
      7 C         140.3413  140.7613  166.9147 C.3     1  UNL1        0.0439
      8 C         139.6167  141.7313  166.0292 C.ar    1  UNL1       -0.0178
      9 C         139.8063  143.2070  166.2200 C.ar    1  UNL1       -0.0040
     10 C         139.0817  144.1769  165.3344 C.ar    1  UNL1        0.0028
     11 C         138.1674  143.6711  164.2582 C.ar    1  UNL1        0.0369
     12 C         137.9777  142.1955  164.0675 C.ar    1  UNL1        0.1383
     13 C         138.7023  141.2256  164.9530 C.ar    1  UNL1        0.0327
     14 O         137.0634  141.6897  162.9912 O.3     1  UNL1       -0.4740
     15 C         137.5918  140.7737  161.9275 C.3     1  UNL1        0.2246
     16 C         137.7294  139.2873  161.7801 C.3     1  UNL1        0.1882
     17 O         138.3392  139.4783  160.4231 O.3     1  UNL1       -0.3459
     18 C         138.2017  140.9647  160.5704 C.3     1  UNL1        0.1882
     19 C         140.4906  141.0498  168.3791 C.3     1  UNL1        0.0474
     20 O         138.5358  139.4943  169.0927 O.co2   1  UNL1       -0.5492
     21 C         139.3779  140.7133  169.3271 C.2     1  UNL1        0.0507
     22 O         139.1072  141.5959  170.5094 O.co2   1  UNL1       -0.5492
     23 C         145.4236  140.6395  163.8307 C.3     1  UNL1        0.0077
     24 C         145.6122  142.1030  163.5613 C.3     1  UNL1        0.0459
     25 C         144.4222  142.9751  163.2900 C.ar    1  UNL1        0.0603
     26 C         143.7546  143.7050  164.4176 C.ar    1  UNL1        0.0145
     27 C         142.5647  144.5770  164.1463 C.ar    1  UNL1       -0.0003
     28 C         142.0423  144.7192  162.7474 C.ar    1  UNL1        0.0092
     29 C         142.7099  143.9893  161.6197 C.ar    1  UNL1        0.1240
     30 N         143.8999  143.1172  161.8911 N.ar    1  UNL1       -0.2356
     31 N         142.1876  144.1314  160.2209 N.pl3   1  UNL1       -0.3184
     32 C         140.9977  145.0034  159.9496 C.3     1  UNL1        0.0885
     33 C         140.3301  145.7333  161.0772 C.3     1  UNL1        0.0260
     34 C         140.8524  145.5912  162.4761 C.3     1  UNL1        0.0309
     35 H         142.6258  143.6523  159.4808 H       1  UNL1        0.1482
@<TRIPOS>UNITY_ATOM_ATTR
20 1
charge -1
@<TRIPOS>BOND
     1    20    21   ar
     2    21    22   ar
     3    21    19    1
     4     7    19    1
     5     7     6    1
     6     6     1    1
     7     1     2    1
     8     2     3    1
     9     3     4    1
    10     4    23    1
    11    23    24    1
    12    24    25    1
    13    25    26   ar
    14    26    27   ar
    15    27    28   ar
    16    28    29   ar
    17    29    30   ar
    18    29    31    1
    19    31    32    1
    20    32    33    1
    21    33    34    1
    22     4     5    1
    23     7     8    1
    24     8     9   ar
    25     9    10   ar
    26    10    11   ar
    27    11    12   ar
    28    12    14    1
    29    14    15    1
    30    15    16    1
    31    16    17    1
    32    17    18    1
    33    12    13   ar
    34     5     1    1
    35    13     8   ar
    36    30    25   ar
    37    18    15    1
    38    34    28    1
    39    31    35    1
@<TRIPOS>MOLECULE
*****
 35 39 0 0 0
SMALL
GASTEIGER

@<TRIPOS>ATOM
      1 N         141.7713  143.9609  164.2522 N.3     1  UNL1       -0.2724
      2 C         142.4326  144.7545  163.1645 C.3     1  UNL1        0.0721
      3 C         143.8393  144.2555  163.0163 C.3     1  UNL1        0.0187
      4 C         144.0475  143.1534  164.0124 C.3     1  UNL1        0.0178
      5 C         142.7694  142.9713  164.7761 C.3     1  UNL1        0.0721
      6 C         140.3598  144.1275  164.7316 C.3     1  UNL1        0.0768
      7 C         139.3386  143.0683  164.4397 C.3     1  UNL1        0.0439
      8 C         139.2144  141.8771  165.3430 C.ar    1  UNL1       -0.0178
      9 C         138.3242  140.7330  164.9573 C.ar    1  UNL1       -0.0040
     10 C         138.2000  139.5419  165.8605 C.ar    1  UNL1        0.0028
     11 C         138.9660  139.4948  167.1494 C.ar    1  UNL1        0.0369
     12 C         139.8561  140.6389  167.5350 C.ar    1  UNL1        0.1383
     13 C         139.9803  141.8300  166.6318 C.ar    1  UNL1        0.0327
     14 O         140.6221  140.5918  168.8239 O.3     1  UNL1       -0.4740
     15 C         141.0017  141.8664  169.5176 C.3     1  UNL1        0.2246
     16 C         142.2646  142.6641  169.6544 C.3     1  UNL1        0.1882
     17 O         141.5385  143.6690  170.4988 O.3     1  UNL1       -0.3459
     18 C         140.2755  142.8713  170.3620 C.3     1  UNL1        0.1882
     19 C         138.4416  143.2002  163.2447 C.3     1  UNL1        0.0474
     20 O         138.1198  143.1060  160.6683 O.co2   1  UNL1       -0.5492
     21 C         138.9351  142.7929  161.8880 C.2     1  UNL1        0.0507
     22 O         140.2436  142.0726  161.7509 O.co2   1  UNL1       -0.5492
     23 C         145.3118  142.3708  164.2099 C.3     1  UNL1        0.0077
     24 C         145.3675  140.9242  163.8173 C.3     1  UNL1        0.0459
     25 C         144.1357  140.0734  163.9119 C.ar    1  UNL1        0.0603
     26 C         143.8634  139.2840  165.1579 C.ar    1  UNL1        0.0145
     27 C         142.6317  138.4332  165.2526 C.ar    1  UNL1       -0.0003
     28 C         141.6722  138.3719  164.1011 C.ar    1  UNL1        0.0092
     29 C         141.9445  139.1613  162.8551 C.ar    1  UNL1        0.1240
     30 N         143.1763  140.0121  162.7605 N.ar    1  UNL1       -0.2356
     31 N         140.9852  139.1000  161.7037 N.pl3   1  UNL1       -0.3184
     32 C         139.7534  138.2492  161.7983 C.3     1  UNL1        0.0885
     33 C         139.4811  137.4598  163.0443 C.3     1  UNL1        0.0260
     34 C         140.4405  137.5211  164.1957 C.3     1  UNL1        0.0309
     35 H         141.1639  139.6181  160.8859 H       1  UNL1        0.1482
@<TRIPOS>UNITY_ATOM_ATTR
20 1
charge -1
@<TRIPOS>BOND
     1    20    21   ar
     2    21    22   ar
     3    21    19    1
     4     7    19    1
     5     7     6    1
     6     6     1    1
     7     1     2    1
     8     2     3    1
     9     3     4    1
    10     4    23    1
    11    23    24    1
    12    24    25    1
    13    25    26   ar
    14    26    27   ar
    15    27    28   ar
    16    28    29   ar
    17    29    30   ar
    18    29    31    1
    19    31    32    1
    20    32    33    1
    21    33    34    1
    22     4     5    1
    23     7     8    1
    24     8     9   ar
    25     9    10   ar
    26    10    11   ar
    27    11    12   ar
    28    12    14    1
    29    14    15    1
    30    15    16    1
    31    16    17    1
    32    17    18    1
    33    12    13   ar
    34     5     1    1
    35    13     8   ar
    36    30    25   ar
    37    18    15    1
    38    34    28    1
    39    31    35    1
@<TRIPOS>MOLECULE
*****
 35 39 0 0 0
SMALL
GASTEIGER

@<TRIPOS>ATOM
      1 N         138.2458  140.3761  162.7884 N.3     1  UNL1       -0.2724
      2 C         138.2015  141.0162  161.4325 C.3     1  UNL1        0.0721
      3 C         138.0097  142.4917  161.6225 C.3     1  UNL1        0.0187
      4 C         137.9355  142.7636  163.0958 C.3     1  UNL1        0.0178
      5 C         138.0814  141.4561  163.8164 C.3     1  UNL1        0.0721
      6 C         138.4234  138.9131  163.0674 C.3     1  UNL1        0.0768
      7 C         139.3228  138.4657  164.1814 C.3     1  UNL1        0.0439
      8 C         140.7931  138.7569  164.1213 C.ar    1  UNL1       -0.0178
      9 C         141.6930  138.3065  165.2336 C.ar    1  UNL1       -0.0040
     10 C         143.1632  138.5977  165.1734 C.ar    1  UNL1        0.0028
     11 C         143.7335  139.3394  164.0009 C.ar    1  UNL1        0.0369
     12 C         142.8336  139.7898  162.8886 C.ar    1  UNL1        0.1383
     13 C         141.3634  139.4985  162.9488 C.ar    1  UNL1        0.0327
     14 O         143.4039  140.5314  161.7161 O.3     1  UNL1       -0.4740
     15 C         143.6666  142.0047  161.8164 C.3     1  UNL1        0.2246
     16 C         142.9951  143.2400  161.2936 C.3     1  UNL1        0.1882
     17 O         144.0383  144.0884  161.9583 O.3     1  UNL1       -0.3459
     18 C         144.7099  142.8533  162.4811 C.3     1  UNL1        0.1882
     19 C         138.7519  137.7271  165.3556 C.3     1  UNL1        0.0474
     20 O         138.8389  139.7840  166.9406 O.co2   1  UNL1       -0.5492
     21 C         138.2059  138.4884  166.5271 C.2     1  UNL1        0.0507
     22 O         137.0270  137.9541  167.2851 O.co2   1  UNL1       -0.5492
     23 C         137.7482  144.1071  163.7360 C.3     1  UNL1        0.0077
     24 C         138.8940  144.7663  164.4449 C.3     1  UNL1        0.0459
     25 C         139.9151  143.9307  165.1586 C.ar    1  UNL1        0.0603
     26 C         141.2202  143.6100  164.4922 C.ar    1  UNL1        0.0145
     27 C         142.2413  142.7745  165.2058 C.ar    1  UNL1       -0.0003
     28 C         141.9573  142.2596  166.5858 C.ar    1  UNL1        0.0092
     29 C         140.6522  142.5802  167.2521 C.ar    1  UNL1        0.1240
     30 N         139.6311  143.4158  166.5385 N.ar    1  UNL1       -0.2356
     31 N         140.3682  142.0653  168.6320 N.pl3   1  UNL1       -0.3184
     32 C         141.3892  141.2298  169.3456 C.3     1  UNL1        0.0885
     33 C         142.6943  140.9092  168.6793 C.3     1  UNL1        0.0260
     34 C         142.9783  141.4240  167.2994 C.3     1  UNL1        0.0309
     35 H         139.5116  142.2758  169.0694 H       1  UNL1        0.1482
@<TRIPOS>UNITY_ATOM_ATTR
20 1
charge -1
@<TRIPOS>BOND
     1    20    21   ar
     2    21    22   ar
     3    21    19    1
     4     7    19    1
     5     7     6    1
     6     6     1    1
     7     1     2    1
     8     2     3    1
     9     3     4    1
    10     4    23    1
    11    23    24    1
    12    24    25    1
    13    25    26   ar
    14    26    27   ar
    15    27    28   ar
    16    28    29   ar
    17    29    30   ar
    18    29    31    1
    19    31    32    1
    20    32    33    1
    21    33    34    1
    22     4     5    1
    23     7     8    1
    24     8     9   ar
    25     9    10   ar
    26    10    11   ar
    27    11    12   ar
    28    12    14    1
    29    14    15    1
    30    15    16    1
    31    16    17    1
    32    17    18    1
    33    12    13   ar
    34     5     1    1
    35    13     8   ar
    36    30    25   ar
    37    18    15    1
    38    34    28    1
    39    31    35    1
@<TRIPOS>MOLECULE
*****
 35 39 0 0 0
SMALL
GASTEIGER

@<TRIPOS>ATOM
      1 N         142.5781  138.4397  163.3604 N.3     1  UNL1       -0.2724
      2 C         142.7492  138.9071  161.9453 C.3     1  UNL1        0.0721
      3 C         143.8888  139.8819  161.9138 C.3     1  UNL1        0.0187
      4 C         144.4221  140.0169  163.3092 C.3     1  UNL1        0.0178
      5 C         143.6120  139.1256  164.2033 C.3     1  UNL1        0.0721
      6 C         141.5530  137.4586  163.8470 C.3     1  UNL1        0.0768
      7 C         140.1268  137.8889  164.0221 C.3     1  UNL1        0.0439
      8 C         139.6800  138.4950  165.3195 C.ar    1  UNL1       -0.0178
      9 C         138.3432  138.1329  165.8955 C.ar    1  UNL1       -0.0040
     10 C         137.8965  138.7389  167.1928 C.ar    1  UNL1        0.0028
     11 C         138.7867  139.7070  167.9142 C.ar    1  UNL1        0.0369
     12 C         140.1235  140.0691  167.3383 C.ar    1  UNL1        0.1383
     13 C         140.5702  139.4631  166.0409 C.ar    1  UNL1        0.0327
     14 O         141.0137  141.0372  168.0597 O.3     1  UNL1       -0.4740
     15 C         141.9939  140.5380  169.0794 C.3     1  UNL1        0.2246
     16 C         142.2495  139.2202  169.7489 C.3     1  UNL1        0.1882
     17 O         143.3802  139.8321  170.5216 O.3     1  UNL1       -0.3459
     18 C         143.1246  141.1499  169.8522 C.3     1  UNL1        0.1882
     19 C         139.1473  137.7132  162.8997 C.3     1  UNL1        0.0474
     20 O         137.3850  138.8065  161.3346 O.co2   1  UNL1       -0.5492
     21 C         138.6357  138.9114  162.1562 C.2     1  UNL1        0.0507
     22 O         139.3749  140.2142  162.2341 O.co2   1  UNL1       -0.5492
     23 C         145.5648  140.8899  163.7357 C.3     1  UNL1        0.0077
     24 C         145.3034  142.2886  164.2105 C.3     1  UNL1        0.0459
     25 C         143.9351  142.8861  164.0665 C.ar    1  UNL1        0.0603
     26 C         142.9193  142.7050  165.1553 C.ar    1  UNL1        0.0145
     27 C         141.5510  143.3025  165.0114 C.ar    1  UNL1       -0.0003
     28 C         141.1984  144.0811  163.7787 C.ar    1  UNL1        0.0092
     29 C         142.2142  144.2622  162.6900 C.ar    1  UNL1        0.1240
     30 N         143.5826  143.6647  162.8339 N.ar    1  UNL1       -0.2356
     31 N         141.8617  145.0408  161.4573 N.pl3   1  UNL1       -0.3184
     32 C         140.4934  145.6383  161.3134 C.3     1  UNL1        0.0885
     33 C         139.4776  145.4572  162.4022 C.3     1  UNL1        0.0260
     34 C         139.8301  144.6786  163.6348 C.3     1  UNL1        0.0309
     35 H         142.5284  145.1597  160.7427 H       1  UNL1        0.1482
@<TRIPOS>UNITY_ATOM_ATTR
20 1
charge -1
@<TRIPOS>BOND
     1    20    21   ar
     2    21    22   ar
     3    21    19    1
     4     7    19    1
     5     7     6    1
     6     6     1    1
     7     1     2    1
     8     2     3    1
     9     3     4    1
    10     4    23    1
    11    23    24    1
    12    24    25    1
    13    25    26   ar
    14    26    27   ar
    15    27    28   ar
    16    28    29   ar
    17    29    30   ar
    18    29    31    1
    19    31    32    1
    20    32    33    1
    21    33    34    1
    22     4     5    1
    23     7     8    1
    24     8     9   ar
    25     9    10   ar
    26    10    11   ar
    27    11    12   ar
    28    12    14    1
    29    14    15    1
    30    15    16    1
    31    16    17    1
    32    17    18    1
    33    12    13   ar
    34     5     1    1
    35    13     8   ar
    36    30    25   ar
    37    18    15    1
    38    34    28    1
    39    31    35    1
@<TRIPOS>MOLECULE
*****
 35 39 0 0 0
SMALL
GASTEIGER

@<TRIPOS>ATOM
      1 N         141.7701  138.2076  163.2692 N.3     1  UNL1       -0.2724
      2 C         140.7788  137.8803  162.1920 C.3     1  UNL1        0.0721
      3 C         139.4697  137.5576  162.8493 C.3     1  UNL1        0.0187
      4 C         139.6518  137.6854  164.3327 C.3     1  UNL1        0.0178
      5 C         141.0736  138.0871  164.5922 C.3     1  UNL1        0.0721
      6 C         143.2058  138.5884  163.0601 C.3     1  UNL1        0.0768
      7 C         143.8832  139.5175  164.0234 C.3     1  UNL1        0.0439
      8 C         143.6971  141.0002  163.8922 C.ar    1  UNL1       -0.0178
      9 C         143.7447  141.8728  165.1113 C.ar    1  UNL1       -0.0040
     10 C         143.5586  143.3554  164.9800 C.ar    1  UNL1        0.0028
     11 C         143.3249  143.9654  163.6297 C.ar    1  UNL1        0.0369
     12 C         143.2773  143.0927  162.4106 C.ar    1  UNL1        0.1383
     13 C         143.4634  141.6101  162.5419 C.ar    1  UNL1        0.0327
     14 O         143.0435  143.7027  161.0603 O.3     1  UNL1       -0.4740
     15 C         141.6502  144.0454  160.6232 C.3     1  UNL1        0.2246
     16 C         140.8511  145.3109  160.5226 C.3     1  UNL1        0.1882
     17 O         139.6797  144.5300  160.0051 O.3     1  UNL1       -0.3459
     18 C         140.4786  143.2645  160.1057 C.3     1  UNL1        0.1882
     19 C         144.7468  138.9639  165.1179 C.3     1  UNL1        0.0474
     20 O         142.9830  139.1701  167.0144 O.co2   1  UNL1       -0.5492
     21 C         144.1189  138.4308  166.3715 C.2     1  UNL1        0.0507
     22 O         144.6269  137.1584  166.9822 O.co2   1  UNL1       -0.5492
     23 C         138.5974  137.4523  165.3738 C.3     1  UNL1        0.0077
     24 C         138.1135  138.5928  166.2194 C.3     1  UNL1        0.0459
     25 C         138.5498  139.9941  165.9096 C.ar    1  UNL1        0.0603
     26 C         139.6509  140.6301  166.7053 C.ar    1  UNL1        0.0145
     27 C         140.0871  142.0313  166.3956 C.ar    1  UNL1       -0.0003
     28 C         139.4223  142.7968  165.2900 C.ar    1  UNL1        0.0092
     29 C         138.3212  142.1609  164.4942 C.ar    1  UNL1        0.1240
     30 N         137.8850  140.7595  164.8041 N.ar    1  UNL1       -0.2356
     31 N         137.6564  142.9262  163.3887 N.pl3   1  UNL1       -0.3184
     32 C         138.0927  144.3275  163.0790 C.3     1  UNL1        0.0885
     33 C         139.1938  144.9634  163.8747 C.3     1  UNL1        0.0260
     34 C         139.8586  144.1981  164.9802 C.3     1  UNL1        0.0309
     35 H         136.9338  142.5088  162.8665 H       1  UNL1        0.1482
@<TRIPOS>UNITY_ATOM_ATTR
20 1
charge -1
@<TRIPOS>BOND
     1    20    21   ar
     2    21    22   ar
     3    21    19    1
     4     7    19    1
     5     7     6    1
     6     6     1    1
     7     1     2    1
     8     2     3    1
     9     3     4    1
    10     4    23    1
    11    23    24    1
    12    24    25    1
    13    25    26   ar
    14    26    27   ar
    15    27    28   ar
    16    28    29   ar
    17    29    30   ar
    18    29    31    1
    19    31    32    1
    20    32    33    1
    21    33    34    1
    22     4     5    1
    23     7     8    1
    24     8     9   ar
    25     9    10   ar
    26    10    11   ar
    27    11    12   ar
    28    12    14    1
    29    14    15    1
    30    15    16    1
    31    16    17    1
    32    17    18    1
    33    12    13   ar
    34     5     1    1
    35    13     8   ar
    36    30    25   ar
    37    18    15    1
    38    34    28    1
    39    31    35    1
