@<TRIPOS>MOLECULE
*****
 43 48 0 0 0
SMALL
GASTEIGER

@<TRIPOS>ATOM
      1 C         142.6701  139.3931  158.8434 C.ar    1  UNL1        0.0358
      2 C         143.6198  140.4549  158.3736 C.ar    1  UNL1        0.0029
      3 C         143.9921  141.5854  159.2866 C.ar    1  UNL1        0.0016
      4 C         143.4148  141.6540  160.6693 C.ar    1  UNL1        0.0174
      5 C         142.4652  140.5922  161.1391 C.ar    1  UNL1        0.0653
      6 C         142.0928  139.4618  160.2263 C.ar    1  UNL1        0.0261
      7 N         141.8879  140.6609  162.5220 N.ar    1  UNL1       -0.2733
      8 C         140.6124  141.4117  162.7658 C.ar    1  UNL1        0.0829
      9 C         140.0352  141.4803  164.1485 C.ar    1  UNL1        0.0193
     10 C         140.7335  140.7982  165.2875 C.ar    1  UNL1        0.0080
     11 C         140.1562  140.8669  166.6703 C.ar    1  UNL1       -0.0039
     12 C         140.8544  140.1848  167.8092 C.ar    1  UNL1       -0.0203
     13 C         142.1300  139.4340  167.5653 C.ar    1  UNL1        0.0255
     14 C         142.7072  139.3653  166.1826 C.ar    1  UNL1        0.1444
     15 F         143.9827  138.6146  165.9388 F       1  UNL1       -0.2040
     16 C         142.0089  140.0474  165.0436 C.ar    1  UNL1        0.0839
     17 C         142.5862  139.9788  163.6609 C.ar    1  UNL1        0.2668
     18 O         143.8617  139.2280  163.4170 O.2     1  UNL1       -0.2665
     19 C         140.2772  140.2534  169.1920 C.3     1  UNL1        0.0224
     20 C         140.4526  140.1619  170.6788 C.3     1  UNL1        0.0047
     21 C         139.1021  140.4638  170.1001 C.3     1  UNL1        0.0047
     22 C         142.9695  136.1503  156.5754 C.ar    1  UNL1        0.2244
     23 N         141.5530  136.0017  156.1047 N.ar    1  UNL1       -0.1810
     24 C         140.5089  136.9837  156.5470 C.ar    1  UNL1        0.2174
     25 N         139.0924  136.8352  156.0764 N.pl3   1  UNL1       -0.3273
     26 N         140.8813  138.1142  157.4599 N.ar    1  UNL1       -0.1948
     27 C         142.2978  138.2627  157.9306 C.ar    1  UNL1        0.1678
     28 N         143.3419  137.2807  157.4883 N.ar    1  UNL1       -0.1943
     29 H         138.8480  136.0932  155.4772 H       1  UNL1        0.1452
     30 H         138.4071  137.4797  156.3667 H       1  UNL1        0.1452
     31 N         144.0136  135.1683  156.1331 N.pl3   1  UNL1       -0.2812
     32 H         144.8419  135.4885  155.7081 H       1  UNL1        0.1551
     33 C         142.2201  130.2326  155.5836 C.3     1  UNL1        0.1312
     34 N         142.9714  131.4298  156.0859 N.ar    1  UNL1       -0.3151
     35 C         142.8763  132.8234  155.5393 C.ar    1  UNL1        0.0913
     36 C         143.7958  133.6985  156.3385 C.ar    1  UNL1        0.0701
     37 C         144.4592  132.8457  157.3790 C.ar    1  UNL1        0.0440
     38 C         143.9497  131.4436  157.2229 C.ar    1  UNL1        0.1310
     39 C         144.3484  130.2626  158.0573 C.1     1  UNL1        0.1180
     40 N         144.7472  129.0816  158.8917 N.1     1  UNL1       -0.1893
     41 C         141.1432  138.4000  160.6961 C.3     1  UNL1        0.1651
     42 O         141.6386  137.2816  161.5644 O.3     1  UNL1       -0.3772
     43 H         142.2600  136.7325  161.0611 H       1  UNL1        0.2109
@<TRIPOS>BOND
     1    33    34    1
     2    34    35   ar
     3    35    36   ar
     4    36    31    1
     5    31    22    1
     6    22    23   ar
     7    23    24   ar
     8    24    25    1
     9    24    26   ar
    10    26    27   ar
    11    27     1    1
    12     1     2   ar
    13     2     3   ar
    14     3     4   ar
    15     4     5   ar
    16     5     7    1
    17     7     8   ar
    18     8     9   ar
    19     9    10   ar
    20    10    11   ar
    21    11    12   ar
    22    12    19    1
    23    19    20    1
    24    20    21    1
    25    12    13   ar
    26    13    14   ar
    27    14    15    1
    28    14    16   ar
    29    16    17   ar
    30    17    18    2
    31     5     6   ar
    32     6    41    1
    33    41    42    1
    34    27    28   ar
    35    36    37   ar
    36    37    38   ar
    37    38    39    1
    38    39    40    3
    39    38    34   ar
    40    28    22   ar
    41     6     1   ar
    42    17     7   ar
    43    16    10   ar
    44    21    19    1
    45    31    32    1
    46    25    29    1
    47    25    30    1
    48    42    43    1
@<TRIPOS>MOLECULE
*****
 43 48 0 0 0
SMALL
GASTEIGER

@<TRIPOS>ATOM
      1 C         143.0986  139.7486  158.4619 C.ar    1  UNL1        0.0358
      2 C         143.9088  140.7875  157.7446 C.ar    1  UNL1        0.0029
      3 C         144.4145  141.9887  158.4872 C.ar    1  UNL1        0.0016
      4 C         144.1101  142.1511  159.9469 C.ar    1  UNL1        0.0174
      5 C         143.2999  141.1123  160.6642 C.ar    1  UNL1        0.0653
      6 C         142.7942  139.9111  159.9217 C.ar    1  UNL1        0.0261
      7 N         142.9955  141.2747  162.1240 N.ar    1  UNL1       -0.2733
      8 C         143.8923  140.6498  163.1512 C.ar    1  UNL1        0.0829
      9 C         143.5878  140.8123  164.6110 C.ar    1  UNL1        0.0193
     10 C         142.3866  141.5997  165.0435 C.ar    1  UNL1        0.0080
     11 C         142.0821  141.7621  166.5033 C.ar    1  UNL1       -0.0039
     12 C         140.8809  142.5495  166.9358 C.ar    1  UNL1       -0.0203
     13 C         139.9841  143.1744  165.9085 C.ar    1  UNL1        0.0255
     14 C         140.2885  143.0119  164.4488 C.ar    1  UNL1        0.1444
     15 F         139.3917  143.6368  163.4216 F       1  UNL1       -0.2040
     16 C         141.4898  142.2245  164.0163 C.ar    1  UNL1        0.0839
     17 C         141.7942  142.0621  162.5565 C.ar    1  UNL1        0.2668
     18 O         140.8974  142.6870  161.5292 O.2     1  UNL1       -0.2665
     19 C         140.5764  142.7119  168.3955 C.3     1  UNL1        0.0224
     20 C         140.1964  142.1140  169.7177 C.3     1  UNL1        0.0047
     21 C         140.4291  143.5913  169.6018 C.3     1  UNL1        0.0047
     22 C         143.0523  136.3125  156.4768 C.ar    1  UNL1        0.2244
     23 N         141.5815  136.1449  156.2345 N.ar    1  UNL1       -0.1810
     24 C         140.6164  137.1786  156.7347 C.ar    1  UNL1        0.2174
     25 N         139.1456  137.0110  156.4925 N.pl3   1  UNL1       -0.3273
     26 N         141.1222  138.3798  157.4772 N.ar    1  UNL1       -0.1948
     27 C         142.5929  138.5474  157.7195 C.ar    1  UNL1        0.1678
     28 N         143.5580  137.5137  157.2192 N.ar    1  UNL1       -0.1943
     29 H         138.8137  136.2226  156.0052 H       1  UNL1        0.1452
     30 H         138.5122  137.6895  156.8208 H       1  UNL1        0.1452
     31 N         144.0174  135.2789  155.9766 N.pl3   1  UNL1       -0.2812
     32 H         144.8320  135.5565  155.4985 H       1  UNL1        0.1551
     33 C         142.0242  130.4118  155.5080 C.3     1  UNL1        0.1312
     34 N         142.8252  131.5852  155.9895 N.ar    1  UNL1       -0.3151
     35 C         142.7841  132.9731  155.4222 C.ar    1  UNL1        0.0913
     36 C         143.7413  133.8223  156.2049 C.ar    1  UNL1        0.0701
     37 C         144.3740  132.9591  157.2559 C.ar    1  UNL1        0.0440
     38 C         143.8078  131.5765  157.1228 C.ar    1  UNL1        0.1310
     39 C         144.1620  130.3930  157.9736 C.1     1  UNL1        0.1180
     40 N         144.5163  129.2095  158.8244 N.1     1  UNL1       -0.1893
     41 C         141.9841  138.8722  160.6390 C.3     1  UNL1        0.1651
     42 O         142.6516  137.6435  161.1818 O.3     1  UNL1       -0.3772
     43 H         142.9890  137.1075  160.4471 H       1  UNL1        0.2109
@<TRIPOS>BOND
     1    33    34    1
     2    34    35   ar
     3    35    36   ar
     4    36    31    1
     5    31    22    1
     6    22    23   ar
     7    23    24   ar
     8    24    25    1
     9    24    26   ar
    10    26    27   ar
    11    27     1    1
    12     1     2   ar
    13     2     3   ar
    14     3     4   ar
    15     4     5   ar
    16     5     7    1
    17     7     8   ar
    18     8     9   ar
    19     9    10   ar
    20    10    11   ar
    21    11    12   ar
    22    12    19    1
    23    19    20    1
    24    20    21    1
    25    12    13   ar
    26    13    14   ar
    27    14    15    1
    28    14    16   ar
    29    16    17   ar
    30    17    18    2
    31     5     6   ar
    32     6    41    1
    33    41    42    1
    34    27    28   ar
    35    36    37   ar
    36    37    38   ar
    37    38    39    1
    38    39    40    3
    39    38    34   ar
    40    28    22   ar
    41     6     1   ar
    42    17     7   ar
    43    16    10   ar
    44    21    19    1
    45    31    32    1
    46    25    29    1
    47    25    30    1
    48    42    43    1
@<TRIPOS>MOLECULE
*****
 43 48 0 0 0
SMALL
GASTEIGER

@<TRIPOS>ATOM
      1 C         140.1199  139.4468  158.2066 C.ar    1  UNL1        0.0358
      2 C         138.9493  140.0512  157.4894 C.ar    1  UNL1        0.0029
      3 C         137.9366  140.8544  158.2506 C.ar    1  UNL1        0.0016
      4 C         138.0946  141.0533  159.7289 C.ar    1  UNL1        0.0174
      5 C         139.2652  140.4489  160.4461 C.ar    1  UNL1        0.0653
      6 C         140.2779  139.6457  159.6850 C.ar    1  UNL1        0.0261
      7 N         139.4232  140.6478  161.9245 N.ar    1  UNL1       -0.2733
      8 C         139.9620  141.9438  162.4535 C.ar    1  UNL1        0.0829
      9 C         140.1199  142.1426  163.9319 C.ar    1  UNL1        0.0193
     10 C         139.7390  141.0454  164.8811 C.ar    1  UNL1        0.0080
     11 C         139.8970  141.2443  166.3595 C.ar    1  UNL1       -0.0039
     12 C         139.5160  140.1471  167.3088 C.ar    1  UNL1       -0.0203
     13 C         138.9772  138.8511  166.7796 C.ar    1  UNL1        0.0255
     14 C         138.8193  138.6522  165.3013 C.ar    1  UNL1        0.1444
     15 F         138.2804  137.3562  164.7723 F       1  UNL1       -0.2040
     16 C         139.2002  139.7494  164.3521 C.ar    1  UNL1        0.0839
     17 C         139.0423  139.5506  162.8737 C.ar    1  UNL1        0.2668
     18 O         138.5034  138.2545  162.3446 O.2     1  UNL1       -0.2665
     19 C         139.6739  140.3460  168.7871 C.3     1  UNL1        0.0224
     20 C         140.3650  140.0131  170.0761 C.3     1  UNL1        0.0047
     21 C         139.2564  141.0233  170.0587 C.3     1  UNL1        0.0047
     22 C         141.8448  136.4205  156.3050 C.ar    1  UNL1        0.2244
     23 N         143.1579  137.0370  155.9232 N.ar    1  UNL1       -0.1810
     24 C         143.4583  138.4568  156.3026 C.ar    1  UNL1        0.2174
     25 N         144.7714  139.0734  155.9210 N.pl3   1  UNL1       -0.3273
     26 N         142.4456  139.2601  157.0638 N.ar    1  UNL1       -0.1948
     27 C         141.1325  138.6435  157.4455 C.ar    1  UNL1        0.1678
     28 N         140.8321  137.2237  157.0661 N.ar    1  UNL1       -0.1943
     29 H         145.4360  138.5462  155.4214 H       1  UNL1        0.1452
     30 H         144.9685  140.0052  156.1700 H       1  UNL1        0.1452
     31 N         141.5443  135.0007  155.9255 N.pl3   1  UNL1       -0.2812
     32 H         140.6755  134.7721  155.5229 H       1  UNL1        0.1551
     33 C         145.4680  132.1838  158.0587 C.3     1  UNL1        0.1312
     34 N         144.3711  132.6345  157.1401 N.ar    1  UNL1       -0.3151
     35 C         143.5393  133.8723  157.3009 C.ar    1  UNL1        0.0913
     36 C         142.5676  133.9293  156.1596 C.ar    1  UNL1        0.0701
     37 C         142.7990  132.7267  155.2933 C.ar    1  UNL1        0.0440
     38 C         143.9136  131.9264  155.8993 C.ar    1  UNL1        0.1310
     39 C         144.4726  130.6435  155.3594 C.1     1  UNL1        0.1180
     40 N         145.0316  129.3605  154.8194 N.1     1  UNL1       -0.1893
     41 C         141.4485  139.0413  160.4022 C.3     1  UNL1        0.1651
     42 O         141.3033  137.7170  161.0917 O.3     1  UNL1       -0.3772
     43 H         140.6858  137.8052  161.8345 H       1  UNL1        0.2109
@<TRIPOS>BOND
     1    33    34    1
     2    34    35   ar
     3    35    36   ar
     4    36    31    1
     5    31    22    1
     6    22    23   ar
     7    23    24   ar
     8    24    25    1
     9    24    26   ar
    10    26    27   ar
    11    27     1    1
    12     1     2   ar
    13     2     3   ar
    14     3     4   ar
    15     4     5   ar
    16     5     7    1
    17     7     8   ar
    18     8     9   ar
    19     9    10   ar
    20    10    11   ar
    21    11    12   ar
    22    12    19    1
    23    19    20    1
    24    20    21    1
    25    12    13   ar
    26    13    14   ar
    27    14    15    1
    28    14    16   ar
    29    16    17   ar
    30    17    18    2
    31     5     6   ar
    32     6    41    1
    33    41    42    1
    34    27    28   ar
    35    36    37   ar
    36    37    38   ar
    37    38    39    1
    38    39    40    3
    39    38    34   ar
    40    28    22   ar
    41     6     1   ar
    42    17     7   ar
    43    16    10   ar
    44    21    19    1
    45    31    32    1
    46    25    29    1
    47    25    30    1
    48    42    43    1
@<TRIPOS>MOLECULE
*****
 43 48 0 0 0
SMALL
GASTEIGER

@<TRIPOS>ATOM
      1 C         139.7364  139.8650  158.4359 C.ar    1  UNL1        0.0358
      2 C         140.9476  139.1436  157.9235 C.ar    1  UNL1        0.0029
      3 C         141.8517  138.4231  158.8794 C.ar    1  UNL1        0.0016
      4 C         141.5445  138.4239  160.3476 C.ar    1  UNL1        0.0174
      5 C         140.3333  139.1453  160.8600 C.ar    1  UNL1        0.0653
      6 C         139.4292  139.8658  159.9042 C.ar    1  UNL1        0.0261
      7 N         140.0261  139.1462  162.3282 N.ar    1  UNL1       -0.2733
      8 C         139.1771  138.0590  162.9175 C.ar    1  UNL1        0.0829
      9 C         138.8700  138.0599  164.3857 C.ar    1  UNL1        0.0193
     10 C         139.4119  139.1479  165.2646 C.ar    1  UNL1        0.0080
     11 C         139.1047  139.1488  166.7329 C.ar    1  UNL1       -0.0039
     12 C         139.6466  140.2368  167.6118 C.ar    1  UNL1       -0.0203
     13 C         140.4956  141.3240  167.0225 C.ar    1  UNL1        0.0255
     14 C         140.8028  141.3231  165.5543 C.ar    1  UNL1        0.1444
     15 F         141.6518  142.4103  164.9651 F       1  UNL1       -0.2040
     16 C         140.2609  140.2351  164.6754 C.ar    1  UNL1        0.0839
     17 C         140.5680  140.2342  163.2072 C.ar    1  UNL1        0.2668
     18 O         141.4170  141.3214  162.6179 O.2     1  UNL1       -0.2665
     19 C         139.3395  140.2377  169.0800 C.3     1  UNL1        0.0224
     20 C         139.8071  140.2644  170.5050 C.3     1  UNL1        0.0047
     21 C         138.3398  140.2126  170.1981 C.3     1  UNL1        0.0047
     22 C         136.8157  140.5665  155.8423 C.ar    1  UNL1        0.2244
     23 N         137.0243  142.0266  155.5686 N.ar    1  UNL1       -0.1810
     24 C         138.1369  142.7661  156.2507 C.ar    1  UNL1        0.2174
     25 N         138.3455  144.2260  155.9770 N.pl3   1  UNL1       -0.3273
     26 N         139.0410  142.0455  157.2065 N.ar    1  UNL1       -0.1948
     27 C         138.8324  140.5855  157.4802 C.ar    1  UNL1        0.1678
     28 N         137.7198  139.8460  156.7980 N.ar    1  UNL1       -0.1943
     29 H         137.7521  144.6990  155.3497 H       1  UNL1        0.1452
     30 H         139.0757  144.7113  156.4248 H       1  UNL1        0.1452
     31 N         135.7031  139.8271  155.1601 N.pl3   1  UNL1       -0.2812
     32 H         135.9093  139.1438  154.4820 H       1  UNL1        0.1551
     33 C         130.8976  142.0146  155.2066 C.3     1  UNL1        0.1312
     34 N         132.0675  141.1341  155.5325 N.ar    1  UNL1       -0.3151
     35 C         133.4163  141.1819  154.8780 C.ar    1  UNL1        0.0913
     36 C         134.2763  140.1286  155.5112 C.ar    1  UNL1        0.0701
     37 C         133.4591  139.4299  156.5571 C.ar    1  UNL1        0.0440
     38 C         132.0939  140.0513  156.5703 C.ar    1  UNL1        0.1310
     39 C         130.9552  139.6589  157.4643 C.1     1  UNL1        0.1180
     40 N         129.8164  139.2664  158.3583 N.1     1  UNL1       -0.1893
     41 C         138.2180  140.5872  160.4166 C.3     1  UNL1        0.1651
     42 O         136.9702  139.8208  160.7415 O.3     1  UNL1       -0.3772
     43 H         136.6018  139.4427  159.9277 H       1  UNL1        0.2109
@<TRIPOS>BOND
     1    33    34    1
     2    34    35   ar
     3    35    36   ar
     4    36    31    1
     5    31    22    1
     6    22    23   ar
     7    23    24   ar
     8    24    25    1
     9    24    26   ar
    10    26    27   ar
    11    27     1    1
    12     1     2   ar
    13     2     3   ar
    14     3     4   ar
    15     4     5   ar
    16     5     7    1
    17     7     8   ar
    18     8     9   ar
    19     9    10   ar
    20    10    11   ar
    21    11    12   ar
    22    12    19    1
    23    19    20    1
    24    20    21    1
    25    12    13   ar
    26    13    14   ar
    27    14    15    1
    28    14    16   ar
    29    16    17   ar
    30    17    18    2
    31     5     6   ar
    32     6    41    1
    33    41    42    1
    34    27    28   ar
    35    36    37   ar
    36    37    38   ar
    37    38    39    1
    38    39    40    3
    39    38    34   ar
    40    28    22   ar
    41     6     1   ar
    42    17     7   ar
    43    16    10   ar
    44    21    19    1
    45    31    32    1
    46    25    29    1
    47    25    30    1
    48    42    43    1
@<TRIPOS>MOLECULE
*****
 43 48 0 0 0
SMALL
GASTEIGER

@<TRIPOS>ATOM
      1 C         139.1861  143.0760  158.1447 C.ar    1  UNL1        0.0358
      2 C         139.9199  144.2035  157.4812 C.ar    1  UNL1        0.0029
      3 C         140.5998  145.2492  158.3146 C.ar    1  UNL1        0.0016
      4 C         140.5458  145.1673  159.8113 C.ar    1  UNL1        0.0174
      5 C         139.8120  144.0398  160.4748 C.ar    1  UNL1        0.0653
      6 C         139.1321  142.9942  159.6415 C.ar    1  UNL1        0.0261
      7 N         139.7580  143.9580  161.9716 N.ar    1  UNL1       -0.2733
      8 C         138.7320  144.7472  162.7294 C.ar    1  UNL1        0.0829
      9 C         138.6781  144.6653  164.2262 C.ar    1  UNL1        0.0193
     10 C         139.6502  143.7942  164.9652 C.ar    1  UNL1        0.0080
     11 C         139.5963  143.7124  166.4620 C.ar    1  UNL1       -0.0039
     12 C         140.5684  142.8413  167.2010 C.ar    1  UNL1       -0.0203
     13 C         141.5945  142.0520  166.4431 C.ar    1  UNL1        0.0255
     14 C         141.6484  142.1339  164.9464 C.ar    1  UNL1        0.1444
     15 F         142.6745  141.3447  164.1886 F       1  UNL1       -0.2040
     16 C         140.6763  143.0050  164.2074 C.ar    1  UNL1        0.0839
     17 C         140.7302  143.0869  162.7106 C.ar    1  UNL1        0.2668
     18 O         141.7563  142.2976  161.9528 O.2     1  UNL1       -0.2665
     19 C         140.5145  142.7594  168.6978 C.3     1  UNL1        0.0224
     20 C         140.6774  143.4071  170.0409 C.3     1  UNL1        0.0047
     21 C         140.2583  141.9699  169.9472 C.3     1  UNL1        0.0047
     22 C         136.5081  141.2841  155.8279 C.ar    1  UNL1        0.2244
     23 N         137.1464  139.9391  155.6448 N.ar    1  UNL1       -0.1810
     24 C         138.4646  139.6397  156.2950 C.ar    1  UNL1        0.2174
     25 N         139.1029  138.2948  156.1119 N.pl3   1  UNL1       -0.3273
     26 N         139.1445  140.6854  157.1283 N.ar    1  UNL1       -0.1948
     27 C         138.5062  142.0304  157.3114 C.ar    1  UNL1        0.1678
     28 N         137.1880  142.3298  156.6612 N.ar    1  UNL1       -0.1943
     29 H         138.6567  137.6085  155.5650 H       1  UNL1        0.1452
     30 H         139.9681  138.0983  156.5387 H       1  UNL1        0.1452
     31 N         135.1899  141.5835  155.1777 N.pl3   1  UNL1       -0.2812
     32 H         135.1534  142.1640  154.3834 H       1  UNL1        0.1551
     33 C         131.8441  138.6243  157.9935 C.3     1  UNL1        0.1312
     34 N         132.3895  139.6382  157.0320 N.ar    1  UNL1       -0.3151
     35 C         133.8405  139.9105  156.7667 C.ar    1  UNL1        0.0913
     36 C         133.9274  140.9984  155.7377 C.ar    1  UNL1        0.0701
     37 C         132.5300  141.3986  155.3671 C.ar    1  UNL1        0.0440
     38 C         131.5795  140.5579  156.1670 C.ar    1  UNL1        0.1310
     39 C         130.0821  140.6251  156.1116 C.1     1  UNL1        0.1180
     40 N         128.5846  140.6924  156.0562 N.1     1  UNL1       -0.1893
     41 C         138.3983  141.8667  160.3050 C.3     1  UNL1        0.1651
     42 O         139.0220  140.5042  160.3751 O.3     1  UNL1       -0.3772
     43 H         139.1043  140.1398  159.4800 H       1  UNL1        0.2109
@<TRIPOS>BOND
     1    33    34    1
     2    34    35   ar
     3    35    36   ar
     4    36    31    1
     5    31    22    1
     6    22    23   ar
     7    23    24   ar
     8    24    25    1
     9    24    26   ar
    10    26    27   ar
    11    27     1    1
    12     1     2   ar
    13     2     3   ar
    14     3     4   ar
    15     4     5   ar
    16     5     7    1
    17     7     8   ar
    18     8     9   ar
    19     9    10   ar
    20    10    11   ar
    21    11    12   ar
    22    12    19    1
    23    19    20    1
    24    20    21    1
    25    12    13   ar
    26    13    14   ar
    27    14    15    1
    28    14    16   ar
    29    16    17   ar
    30    17    18    2
    31     5     6   ar
    32     6    41    1
    33    41    42    1
    34    27    28   ar
    35    36    37   ar
    36    37    38   ar
    37    38    39    1
    38    39    40    3
    39    38    34   ar
    40    28    22   ar
    41     6     1   ar
    42    17     7   ar
    43    16    10   ar
    44    21    19    1
    45    31    32    1
    46    25    29    1
    47    25    30    1
    48    42    43    1
@<TRIPOS>MOLECULE
*****
 43 48 0 0 0
SMALL
GASTEIGER

@<TRIPOS>ATOM
      1 C         140.0436  139.2602  158.4036 C.ar    1  UNL1        0.0358
      2 C         138.8891  139.9460  157.7353 C.ar    1  UNL1        0.0029
      3 C         137.8067  140.5719  158.5641 C.ar    1  UNL1        0.0016
      4 C         137.8790  140.5120  160.0612 C.ar    1  UNL1        0.0174
      5 C         139.0336  139.8262  160.7295 C.ar    1  UNL1        0.0653
      6 C         140.1159  139.2003  159.9007 C.ar    1  UNL1        0.0261
      7 N         139.1058  139.7663  162.2266 N.ar    1  UNL1       -0.2733
      8 C         138.6174  138.5481  162.9528 C.ar    1  UNL1        0.0829
      9 C         138.6896  138.4882  164.4499 C.ar    1  UNL1        0.0193
     10 C         139.2503  139.6465  165.2206 C.ar    1  UNL1        0.0080
     11 C         139.3225  139.5866  166.7177 C.ar    1  UNL1       -0.0039
     12 C         139.8832  140.7449  167.4885 C.ar    1  UNL1       -0.0203
     13 C         140.3716  141.9631  166.7621 C.ar    1  UNL1        0.0255
     14 C         140.2994  142.0229  165.2651 C.ar    1  UNL1        0.1444
     15 F         140.7878  143.2411  164.5388 F       1  UNL1       -0.2040
     16 C         139.7387  140.8647  164.4943 C.ar    1  UNL1        0.0839
     17 C         139.6665  140.9245  162.9973 C.ar    1  UNL1        0.2668
     18 O         140.1549  142.1427  162.2710 O.2     1  UNL1       -0.2665
     19 C         139.9554  140.6850  168.9855 C.3     1  UNL1        0.0224
     20 C         140.4490  140.0211  170.2367 C.3     1  UNL1        0.0047
     21 C         139.5869  141.2453  170.3273 C.3     1  UNL1        0.0047
     22 C         141.9978  136.6540  156.1367 C.ar    1  UNL1        0.2244
     23 N         143.2906  137.3825  155.9174 N.ar    1  UNL1       -0.1810
     24 C         143.5011  138.7368  156.5268 C.ar    1  UNL1        0.2174
     25 N         144.7938  139.4653  156.3076 N.pl3   1  UNL1       -0.3273
     26 N         142.4187  139.3627  157.3556 N.ar    1  UNL1       -0.1948
     27 C         141.1259  138.6343  157.5749 C.ar    1  UNL1        0.1678
     28 N         140.9155  137.2799  156.9654 N.ar    1  UNL1       -0.1943
     29 H         145.5042  139.0545  155.7636 H       1  UNL1        0.1452
     30 H         144.9319  140.3542  156.7076 H       1  UNL1        0.1452
     31 N         141.7873  135.2997  155.5272 N.pl3   1  UNL1       -0.2812
     32 H         141.1765  135.1936  154.7625 H       1  UNL1        0.1551
     33 C         145.3174  132.2918  158.0514 C.3     1  UNL1        0.1312
     34 N         144.1302  132.7245  157.2431 N.ar    1  UNL1       -0.3151
     35 C         143.7630  134.1386  156.9032 C.ar    1  UNL1        0.0913
     36 C         142.5075  134.1071  156.0829 C.ar    1  UNL1        0.0701
     37 C         142.0988  132.6735  155.9159 C.ar    1  UNL1        0.0440
     38 C         143.1016  131.8190  156.6329 C.ar    1  UNL1        0.1310
     39 C         143.0798  130.3219  156.7238 C.1     1  UNL1        0.1180
     40 N         143.0580  128.8249  156.8148 N.1     1  UNL1       -0.1893
     41 C         141.2704  138.5144  160.5690 C.3     1  UNL1        0.1651
     42 O         142.6151  139.1780  160.6104 O.3     1  UNL1       -0.3772
     43 H         142.9681  139.2497  159.7097 H       1  UNL1        0.2109
@<TRIPOS>BOND
     1    33    34    1
     2    34    35   ar
     3    35    36   ar
     4    36    31    1
     5    31    22    1
     6    22    23   ar
     7    23    24   ar
     8    24    25    1
     9    24    26   ar
    10    26    27   ar
    11    27     1    1
    12     1     2   ar
    13     2     3   ar
    14     3     4   ar
    15     4     5   ar
    16     5     7    1
    17     7     8   ar
    18     8     9   ar
    19     9    10   ar
    20    10    11   ar
    21    11    12   ar
    22    12    19    1
    23    19    20    1
    24    20    21    1
    25    12    13   ar
    26    13    14   ar
    27    14    15    1
    28    14    16   ar
    29    16    17   ar
    30    17    18    2
    31     5     6   ar
    32     6    41    1
    33    41    42    1
    34    27    28   ar
    35    36    37   ar
    36    37    38   ar
    37    38    39    1
    38    39    40    3
    39    38    34   ar
    40    28    22   ar
    41     6     1   ar
    42    17     7   ar
    43    16    10   ar
    44    21    19    1
    45    31    32    1
    46    25    29    1
    47    25    30    1
    48    42    43    1
@<TRIPOS>MOLECULE
*****
 43 48 0 0 0
SMALL
GASTEIGER

@<TRIPOS>ATOM
      1 C         141.3503  138.4489  158.2424 C.ar    1  UNL1        0.0358
      2 C         140.0068  138.8854  157.7380 C.ar    1  UNL1        0.0029
      3 C         139.0160  139.5021  158.6805 C.ar    1  UNL1        0.0016
      4 C         139.3688  139.6822  160.1272 C.ar    1  UNL1        0.0174
      5 C         140.7123  139.2456  160.6316 C.ar    1  UNL1        0.0653
      6 C         141.7031  138.6290  159.6892 C.ar    1  UNL1        0.0261
      7 N         141.0651  139.4257  162.0784 N.ar    1  UNL1       -0.2733
      8 C         140.8693  138.2951  163.0445 C.ar    1  UNL1        0.0829
      9 C         141.2221  138.4753  164.4912 C.ar    1  UNL1        0.0193
     10 C         141.7705  139.7860  164.9719 C.ar    1  UNL1        0.0080
     11 C         142.1233  139.9661  166.4187 C.ar    1  UNL1       -0.0039
     12 C         142.6717  141.2769  166.8994 C.ar    1  UNL1       -0.0203
     13 C         142.8675  142.4076  165.9332 C.ar    1  UNL1        0.0255
     14 C         142.5147  142.2274  164.4865 C.ar    1  UNL1        0.1444
     15 F         142.7105  143.3581  163.5204 F       1  UNL1       -0.2040
     16 C         141.9663  140.9167  164.0058 C.ar    1  UNL1        0.0839
     17 C         141.6135  140.7365  162.5591 C.ar    1  UNL1        0.2668
     18 O         141.8093  141.8672  161.5929 O.2     1  UNL1       -0.2665
     19 C         143.0245  141.4571  168.3461 C.3     1  UNL1        0.0224
     20 C         143.0393  140.9393  169.7538 C.3     1  UNL1        0.0047
     21 C         143.6206  142.2869  169.4442 C.3     1  UNL1        0.0047
     22 C         143.9386  138.0408  155.2618 C.ar    1  UNL1        0.2244
     23 N         144.3226  136.5988  155.4152 N.ar    1  UNL1       -0.1810
     24 C         143.7158  135.7736  156.5111 C.ar    1  UNL1        0.2174
     25 N         144.0998  134.3318  156.6646 N.pl3   1  UNL1       -0.3273
     26 N         142.7251  136.3904  157.4535 N.ar    1  UNL1       -0.1948
     27 C         142.3411  137.8322  157.3000 C.ar    1  UNL1        0.1678
     28 N         142.9478  138.6574  156.2042 N.ar    1  UNL1       -0.1943
     29 H         144.7501  133.9271  156.0461 H       1  UNL1        0.1452
     30 H         143.7016  133.7902  157.3839 H       1  UNL1        0.1452
     31 N         144.5453  138.8659  154.1659 N.pl3   1  UNL1       -0.2812
     32 H         144.3692  138.6395  153.2241 H       1  UNL1        0.1551
     33 C         147.1264  142.5857  156.8828 C.3     1  UNL1        0.1312
     34 N         146.6067  141.7459  155.7538 N.ar    1  UNL1       -0.3151
     35 C         145.6756  140.5768  155.8806 C.ar    1  UNL1        0.0913
     36 C         145.4203  140.0361  154.5049 C.ar    1  UNL1        0.0701
     37 C         146.1937  140.8711  153.5278 C.ar    1  UNL1        0.0440
     38 C         146.9269  141.9279  154.2996 C.ar    1  UNL1        0.1310
     39 C         147.8230  142.9815  153.7192 C.1     1  UNL1        0.1180
     40 N         148.7191  144.0351  153.1388 N.1     1  UNL1       -0.1893
     41 C         143.0466  138.1924  160.1936 C.3     1  UNL1        0.1651
     42 O         143.2861  136.7526  160.5398 O.3     1  UNL1       -0.3772
     43 H         142.7391  136.5082  161.3026 H       1  UNL1        0.2109
@<TRIPOS>BOND
     1    33    34    1
     2    34    35   ar
     3    35    36   ar
     4    36    31    1
     5    31    22    1
     6    22    23   ar
     7    23    24   ar
     8    24    25    1
     9    24    26   ar
    10    26    27   ar
    11    27     1    1
    12     1     2   ar
    13     2     3   ar
    14     3     4   ar
    15     4     5   ar
    16     5     7    1
    17     7     8   ar
    18     8     9   ar
    19     9    10   ar
    20    10    11   ar
    21    11    12   ar
    22    12    19    1
    23    19    20    1
    24    20    21    1
    25    12    13   ar
    26    13    14   ar
    27    14    15    1
    28    14    16   ar
    29    16    17   ar
    30    17    18    2
    31     5     6   ar
    32     6    41    1
    33    41    42    1
    34    27    28   ar
    35    36    37   ar
    36    37    38   ar
    37    38    39    1
    38    39    40    3
    39    38    34   ar
    40    28    22   ar
    41     6     1   ar
    42    17     7   ar
    43    16    10   ar
    44    21    19    1
    45    31    32    1
    46    25    29    1
    47    25    30    1
    48    42    43    1
@<TRIPOS>MOLECULE
*****
 43 48 0 0 0
SMALL
GASTEIGER

@<TRIPOS>ATOM
      1 C         140.3442  142.2874  157.7450 C.ar    1  UNL1        0.0358
      2 C         141.2766  141.2574  157.1795 C.ar    1  UNL1        0.0029
      3 C         142.2043  140.5063  158.0880 C.ar    1  UNL1        0.0016
      4 C         142.1996  140.7852  159.5618 C.ar    1  UNL1        0.0174
      5 C         141.2671  141.8151  160.1272 C.ar    1  UNL1        0.0653
      6 C         140.3395  142.5662  159.2189 C.ar    1  UNL1        0.0261
      7 N         141.2624  142.0940  161.6011 N.ar    1  UNL1       -0.2733
      8 C         142.1081  143.2008  162.1577 C.ar    1  UNL1        0.0829
      9 C         142.1033  143.4796  163.6316 C.ar    1  UNL1        0.0193
     10 C         141.2530  142.6516  164.5488 C.ar    1  UNL1        0.0080
     11 C         141.2483  142.9305  166.0227 C.ar    1  UNL1       -0.0039
     12 C         140.3979  142.1025  166.9399 C.ar    1  UNL1       -0.0203
     13 C         139.5523  140.9956  166.3832 C.ar    1  UNL1        0.0255
     14 C         139.5570  140.7168  164.9094 C.ar    1  UNL1        0.1444
     15 F         138.7114  139.6100  164.3528 F       1  UNL1       -0.2040
     16 C         140.4074  141.5448  163.9922 C.ar    1  UNL1        0.0839
     17 C         140.4121  141.2660  162.5184 C.ar    1  UNL1        0.2668
     18 O         139.5664  140.1591  161.9617 O.2     1  UNL1       -0.2665
     19 C         140.3932  142.3813  168.4137 C.3     1  UNL1        0.0224
     20 C         140.7071  143.2903  169.5649 C.3     1  UNL1        0.0047
     21 C         140.0711  141.9551  169.8154 C.3     1  UNL1        0.0047
     22 C         138.9375  145.0713  155.2913 C.ar    1  UNL1        0.2244
     23 N         137.5610  144.5407  155.0198 N.ar    1  UNL1       -0.1810
     24 C         137.1122  143.2589  155.6568 C.ar    1  UNL1        0.2174
     25 N         135.7358  142.7282  155.3853 N.pl3   1  UNL1       -0.3273
     26 N         138.0400  142.5078  156.5652 N.ar    1  UNL1       -0.1948
     27 C         139.4165  143.0385  156.8366 C.ar    1  UNL1        0.1678
     28 N         139.8652  144.3202  156.1997 N.ar    1  UNL1       -0.1943
     29 H         135.1269  143.2212  154.7891 H       1  UNL1        0.1452
     30 H         135.4413  141.8870  155.8034 H       1  UNL1        0.1452
     31 N         139.3863  146.3531  154.6544 N.pl3   1  UNL1       -0.2812
     32 H         139.8667  146.3341  153.7953 H       1  UNL1        0.1551
     33 C         138.1232  149.9577  158.3002 C.3     1  UNL1        0.1312
     34 N         138.5224  149.3207  157.0021 N.ar    1  UNL1       -0.3151
     35 C         138.7024  147.8514  156.7596 C.ar    1  UNL1        0.0913
     36 C         139.1030  147.6639  155.3263 C.ar    1  UNL1        0.0701
     37 C         139.1706  149.0173  154.6830 C.ar    1  UNL1        0.0440
     38 C         138.8118  150.0413  155.7187 C.ar    1  UNL1        0.1310
     39 C         138.7527  151.5252  155.5080 C.1     1  UNL1        0.1180
     40 N         138.6937  153.0091  155.2973 N.1     1  UNL1       -0.1893
     41 C         139.4070  143.5962  159.7843 C.3     1  UNL1        0.1651
     42 O         139.8184  145.0382  159.8257 O.3     1  UNL1       -0.3772
     43 H         140.5657  145.1438  160.4350 H       1  UNL1        0.2109
@<TRIPOS>BOND
     1    33    34    1
     2    34    35   ar
     3    35    36   ar
     4    36    31    1
     5    31    22    1
     6    22    23   ar
     7    23    24   ar
     8    24    25    1
     9    24    26   ar
    10    26    27   ar
    11    27     1    1
    12     1     2   ar
    13     2     3   ar
    14     3     4   ar
    15     4     5   ar
    16     5     7    1
    17     7     8   ar
    18     8     9   ar
    19     9    10   ar
    20    10    11   ar
    21    11    12   ar
    22    12    19    1
    23    19    20    1
    24    20    21    1
    25    12    13   ar
    26    13    14   ar
    27    14    15    1
    28    14    16   ar
    29    16    17   ar
    30    17    18    2
    31     5     6   ar
    32     6    41    1
    33    41    42    1
    34    27    28   ar
    35    36    37   ar
    36    37    38   ar
    37    38    39    1
    38    39    40    3
    39    38    34   ar
    40    28    22   ar
    41     6     1   ar
    42    17     7   ar
    43    16    10   ar
    44    21    19    1
    45    31    32    1
    46    25    29    1
    47    25    30    1
    48    42    43    1
@<TRIPOS>MOLECULE
*****
 43 48 0 0 0
SMALL
GASTEIGER

@<TRIPOS>ATOM
      1 C         141.5346  140.4957  161.0468 C.ar    1  UNL1        0.0358
      2 C         142.6201  141.5246  160.9321 C.ar    1  UNL1        0.0029
      3 C         143.4952  141.5588  159.7143 C.ar    1  UNL1        0.0016
      4 C         143.2849  140.5643  158.6113 C.ar    1  UNL1        0.0174
      5 C         142.1994  139.5354  158.7261 C.ar    1  UNL1        0.0653
      6 C         141.3243  139.5011  159.9438 C.ar    1  UNL1        0.0261
      7 N         141.9891  138.5408  157.6230 N.ar    1  UNL1       -0.2733
      8 C         141.2396  138.9396  156.3865 C.ar    1  UNL1        0.0829
      9 C         141.0293  137.9450  155.2835 C.ar    1  UNL1        0.0193
     10 C         141.5686  136.5517  155.4171 C.ar    1  UNL1        0.0080
     11 C         141.3583  135.5571  154.3141 C.ar    1  UNL1       -0.0039
     12 C         141.8976  134.1638  154.4477 C.ar    1  UNL1       -0.0203
     13 C         142.6472  133.7650  155.6843 C.ar    1  UNL1        0.0255
     14 C         142.8574  134.7596  156.7873 C.ar    1  UNL1        0.1444
     15 F         143.6070  134.3609  158.0238 F       1  UNL1       -0.2040
     16 C         142.3182  136.1529  156.6537 C.ar    1  UNL1        0.0839
     17 C         142.5284  137.1475  157.7566 C.ar    1  UNL1        0.2668
     18 O         143.2780  136.7488  158.9933 O.2     1  UNL1       -0.2665
     19 C         141.6873  133.1692  153.3447 C.3     1  UNL1        0.0224
     20 C         142.0220  132.6588  151.9745 C.3     1  UNL1        0.0047
     21 C         140.9884  131.9569  152.8045 C.3     1  UNL1        0.0047
     22 C         140.3459  139.9731  164.7970 C.ar    1  UNL1        0.2244
     23 N         138.9091  140.3928  164.7000 N.ar    1  UNL1       -0.1810
     24 C         138.3474  140.8468  163.3853 C.ar    1  UNL1        0.2174
     25 N         136.9106  141.2665  163.2884 N.pl3   1  UNL1       -0.3273
     26 N         139.2227  140.8811  162.1676 N.ar    1  UNL1       -0.1948
     27 C         140.6594  140.4614  162.2646 C.ar    1  UNL1        0.1678
     28 N         141.2211  140.0074  163.5793 N.ar    1  UNL1       -0.1943
     29 H         136.3362  141.2440  164.0876 H       1  UNL1        0.1452
     30 H         136.5420  141.5644  162.4255 H       1  UNL1        0.1452
     31 N         140.9076  139.5191  166.1117 N.pl3   1  UNL1       -0.2812
     32 H         141.0418  138.5592  166.2845 H       1  UNL1        0.1551
     33 C         143.5985  142.2515  169.7411 C.3     1  UNL1        0.1312
     34 N         142.5016  141.7835  168.8313 N.ar    1  UNL1       -0.3151
     35 C         142.5867  140.6415  167.8625 C.ar    1  UNL1        0.0913
     36 C         141.2647  140.5275  167.1631 C.ar    1  UNL1        0.0701
     37 C         140.3625  141.5991  167.6997 C.ar    1  UNL1        0.0440
     38 C         141.1269  142.3753  168.7307 C.ar    1  UNL1        0.1310
     39 C         140.6078  143.5390  169.5221 C.1     1  UNL1        0.1180
     40 N         140.0888  144.7027  170.3136 N.1     1  UNL1       -0.1893
     41 C         140.2388  138.4722  160.0586 C.3     1  UNL1        0.1651
     42 O         139.9946  137.7825  161.3681 O.3     1  UNL1       -0.3772
     43 H         140.7625  137.2341  161.5928 H       1  UNL1        0.2109
@<TRIPOS>BOND
     1    33    34    1
     2    34    35   ar
     3    35    36   ar
     4    36    31    1
     5    31    22    1
     6    22    23   ar
     7    23    24   ar
     8    24    25    1
     9    24    26   ar
    10    26    27   ar
    11    27     1    1
    12     1     2   ar
    13     2     3   ar
    14     3     4   ar
    15     4     5   ar
    16     5     7    1
    17     7     8   ar
    18     8     9   ar
    19     9    10   ar
    20    10    11   ar
    21    11    12   ar
    22    12    19    1
    23    19    20    1
    24    20    21    1
    25    12    13   ar
    26    13    14   ar
    27    14    15    1
    28    14    16   ar
    29    16    17   ar
    30    17    18    2
    31     5     6   ar
    32     6    41    1
    33    41    42    1
    34    27    28   ar
    35    36    37   ar
    36    37    38   ar
    37    38    39    1
    38    39    40    3
    39    38    34   ar
    40    28    22   ar
    41     6     1   ar
    42    17     7   ar
    43    16    10   ar
    44    21    19    1
    45    31    32    1
    46    25    29    1
    47    25    30    1
    48    42    43    1
