@<TRIPOS>MOLECULE
*****
 30 32 0 0 0
SMALL
GASTEIGER

@<TRIPOS>ATOM
      1 N         141.1106  141.7756  163.0975 N.am    1  UNL1       -0.2658
      2 C         141.5122  142.2624  164.4583 C.2     1  UNL1        0.3082
      3 O         142.1954  143.5893  164.6089 O.2     1  UNL1       -0.2521
      4 N         141.2306  141.4223  165.6686 N.am    1  UNL1       -0.2680
      5 H         140.6622  140.9048  162.9987 H       1  UNL1        0.1565
      6 H         140.7822  140.5514  165.5699 H       1  UNL1        0.1564
      7 C         140.2728  143.3404  161.2003 C.ar    1  UNL1        0.1040
      8 C         141.3922  142.6159  161.8872 C.ar    1  UNL1        0.0871
      9 C         142.7931  142.7315  161.3639 C.ar    1  UNL1        0.1165
     10 N         143.0747  143.5717  160.1536 N.ar    1  UNL1       -0.2236
     11 C         141.9553  144.2963  159.4667 C.ar    1  UNL1        0.1660
     12 C         141.9282  145.1912  158.2632 C.ar    1  UNL1        0.0713
     13 C         140.5105  145.6287  158.0428 C.ar    1  UNL1        0.1613
     14 CL        140.0267  146.5321  156.9474 Cl      1  UNL1       -0.0594
     15 N         139.6614  145.0041  159.1100 N.ar    1  UNL1       -0.1523
     16 N         140.5543  144.1806  159.9900 N.ar    1  UNL1       -0.2118
     17 C         138.8718  143.2248  161.7236 C.3     1  UNL1        0.1564
     18 C         138.0840  141.9704  161.4873 C.3     1  UNL1        0.0387
     19 C         138.8156  144.7611  163.8181 C.3     1  UNL1        0.1745
     20 O         138.2585  144.3636  162.4834 O.3     1  UNL1       -0.3476
     21 C         141.6322  141.9090  167.0295 C.ar    1  UNL1        0.0546
     22 C         143.0797  141.9283  167.4221 C.ar    1  UNL1        0.0354
     23 C         143.4813  142.4150  168.7829 C.ar    1  UNL1        0.1000
     24 N         142.4353  142.8825  169.7511 N.ar    1  UNL1       -0.2398
     25 C         140.9877  142.8632  169.3585 C.ar    1  UNL1        0.1539
     26 C         140.5861  142.3764  167.9976 C.ar    1  UNL1        0.0378
     27 C         139.9417  143.3306  170.3267 C.3     1  UNL1        0.4349
     28 F         138.8957  143.7980  171.2949 F       1  UNL1       -0.1644
     29 F         140.4930  144.7235  170.2499 F       1  UNL1       -0.1644
     30 F         139.3904  141.9376  170.4035 F       1  UNL1       -0.1644
@<TRIPOS>BOND
     1    19    20    1
     2    20    17    1
     3    17    18    1
     4    17     7    1
     5     7     8   ar
     6     8     1    1
     7     1     2   am
     8     2     3    2
     9     2     4   am
    10     4    21    1
    11    21    22   ar
    12    22    23   ar
    13    23    24   ar
    14    24    25   ar
    15    25    27    1
    16    27    28    1
    17    27    29    1
    18    27    30    1
    19    25    26   ar
    20     8     9   ar
    21     9    10   ar
    22    10    11   ar
    23    11    12   ar
    24    12    13   ar
    25    13    14    1
    26    13    15   ar
    27    15    16   ar
    28    16     7   ar
    29    26    21   ar
    30    16    11   ar
    31     1     5    1
    32     4     6    1
@<TRIPOS>MOLECULE
*****
 30 32 0 0 0
SMALL
GASTEIGER

@<TRIPOS>ATOM
      1 N         140.9562  141.6482  163.4105 N.am    1  UNL1       -0.2658
      2 C         141.2675  142.1997  164.7703 C.2     1  UNL1        0.3082
      3 O         141.3344  143.6834  164.9807 O.2     1  UNL1       -0.2521
      4 N         141.5119  141.2674  165.9197 N.am    1  UNL1       -0.2680
      5 H         140.9123  140.6745  163.2724 H       1  UNL1        0.1565
      6 H         141.4680  140.2936  165.7816 H       1  UNL1        0.1564
      7 C         141.8312  142.9258  161.3243 C.ar    1  UNL1        0.1040
      8 C         140.7117  142.5806  162.2611 C.ar    1  UNL1        0.0871
      9 C         139.3479  143.1677  162.0485 C.ar    1  UNL1        0.1165
     10 N         139.1035  144.1000  160.8991 N.ar    1  UNL1       -0.2236
     11 C         140.2230  144.4452  159.9623 C.ar    1  UNL1        0.1660
     12 C         140.2820  145.3281  158.7511 C.ar    1  UNL1        0.0713
     13 C         141.6824  145.2867  158.2152 C.ar    1  UNL1        0.1613
     14 CL        142.1877  146.0242  157.0107 Cl      1  UNL1       -0.0594
     15 N         142.4888  144.3781  159.0951 N.ar    1  UNL1       -0.1523
     16 N         141.5869  143.8581  160.1749 N.ar    1  UNL1       -0.2118
     17 C         143.1951  142.3387  161.5369 C.3     1  UNL1        0.1564
     18 C         143.6050  141.1042  160.7899 C.3     1  UNL1        0.0387
     19 C         144.0031  144.4405  162.8328 C.3     1  UNL1        0.1745
     20 O         144.1491  142.9861  162.4966 O.3     1  UNL1       -0.3476
     21 C         141.8232  141.8188  167.2795 C.ar    1  UNL1        0.0546
     22 C         143.2477  141.9291  167.7360 C.ar    1  UNL1        0.0354
     23 C         143.5591  142.4805  169.0958 C.ar    1  UNL1        0.1000
     24 N         142.4458  142.9216  169.9991 N.ar    1  UNL1       -0.2398
     25 C         141.0212  142.8114  169.5426 C.ar    1  UNL1        0.1539
     26 C         140.7099  142.2599  168.1828 C.ar    1  UNL1        0.0378
     27 C         139.9079  143.2525  170.4460 C.3     1  UNL1        0.4349
     28 F         138.7946  143.6936  171.3493 F       1  UNL1       -0.1644
     29 F         140.3325  144.6805  170.2719 F       1  UNL1       -0.1644
     30 F         139.4833  141.8243  170.6200 F       1  UNL1       -0.1644
@<TRIPOS>BOND
     1    19    20    1
     2    20    17    1
     3    17    18    1
     4    17     7    1
     5     7     8   ar
     6     8     1    1
     7     1     2   am
     8     2     3    2
     9     2     4   am
    10     4    21    1
    11    21    22   ar
    12    22    23   ar
    13    23    24   ar
    14    24    25   ar
    15    25    27    1
    16    27    28    1
    17    27    29    1
    18    27    30    1
    19    25    26   ar
    20     8     9   ar
    21     9    10   ar
    22    10    11   ar
    23    11    12   ar
    24    12    13   ar
    25    13    14    1
    26    13    15   ar
    27    15    16   ar
    28    16     7   ar
    29    26    21   ar
    30    16    11   ar
    31     1     5    1
    32     4     6    1
@<TRIPOS>MOLECULE
*****
 30 32 0 0 0
SMALL
GASTEIGER

@<TRIPOS>ATOM
      1 N         142.2018  143.0904  162.0721 N.am    1  UNL1       -0.2658
      2 C         141.5931  141.7538  162.3768 C.2     1  UNL1        0.3082
      3 O         140.9451  140.9577  161.2830 O.2     1  UNL1       -0.2521
      4 N         141.6323  141.2132  163.7755 N.am    1  UNL1       -0.2680
      5 H         142.6271  143.6128  162.7900 H       1  UNL1        0.1565
      6 H         142.0576  141.7356  164.4934 H       1  UNL1        0.1564
      7 C         141.0326  144.5192  160.2441 C.ar    1  UNL1        0.1040
      8 C         142.1626  143.6310  160.6734 C.ar    1  UNL1        0.0871
      9 C         143.2532  143.2833  159.7041 C.ar    1  UNL1        0.1165
     10 N         143.2139  143.8239  158.3053 N.ar    1  UNL1       -0.2236
     11 C         142.0840  144.7121  157.8761 C.ar    1  UNL1        0.1660
     12 C         141.7790  145.3892  156.5728 C.ar    1  UNL1        0.0713
     13 C         140.4999  146.1554  156.7367 C.ar    1  UNL1        0.1613
     14 CL        139.8248  146.9803  155.6814 Cl      1  UNL1       -0.0594
     15 N         140.0143  145.9517  158.1413 N.ar    1  UNL1       -0.1523
     16 N         140.9933  145.0598  158.8455 N.ar    1  UNL1       -0.2118
     17 C         139.9420  144.8668  161.2135 C.3     1  UNL1        0.1564
     18 C         139.9186  146.2187  161.8629 C.3     1  UNL1        0.0387
     19 C         138.0664  144.0013  162.7893 C.3     1  UNL1        0.1745
     20 O         138.8747  143.8624  161.5334 O.3     1  UNL1       -0.3476
     21 C         141.0235  139.8765  164.0803 C.ar    1  UNL1        0.0546
     22 C         141.5736  138.6378  163.4379 C.ar    1  UNL1        0.0354
     23 C         140.9649  137.3012  163.7426 C.ar    1  UNL1        0.1000
     24 N         139.8060  137.2033  164.6898 N.ar    1  UNL1       -0.2398
     25 C         139.2558  138.4421  165.3323 C.ar    1  UNL1        0.1539
     26 C         139.8645  139.7788  165.0275 C.ar    1  UNL1        0.0378
     27 C         138.0968  138.3442  166.2795 C.3     1  UNL1        0.4349
     28 F         136.9379  138.2464  167.2268 F       1  UNL1       -0.1644
     29 F         138.1176  136.8499  166.1506 F       1  UNL1       -0.1644
     30 F         138.0761  139.8386  166.4085 F       1  UNL1       -0.1644
@<TRIPOS>BOND
     1    19    20    1
     2    20    17    1
     3    17    18    1
     4    17     7    1
     5     7     8   ar
     6     8     1    1
     7     1     2   am
     8     2     3    2
     9     2     4   am
    10     4    21    1
    11    21    22   ar
    12    22    23   ar
    13    23    24   ar
    14    24    25   ar
    15    25    27    1
    16    27    28    1
    17    27    29    1
    18    27    30    1
    19    25    26   ar
    20     8     9   ar
    21     9    10   ar
    22    10    11   ar
    23    11    12   ar
    24    12    13   ar
    25    13    14    1
    26    13    15   ar
    27    15    16   ar
    28    16     7   ar
    29    26    21   ar
    30    16    11   ar
    31     1     5    1
    32     4     6    1
@<TRIPOS>MOLECULE
*****
 30 32 0 0 0
SMALL
GASTEIGER

@<TRIPOS>ATOM
      1 N         138.8868  139.6089  165.4309 N.am    1  UNL1       -0.2658
      2 C         139.4443  140.5384  166.4678 C.2     1  UNL1        0.3082
      3 O         139.8353  141.9363  166.0895 O.2     1  UNL1       -0.2521
      4 N         139.6108  140.0701  167.8830 N.am    1  UNL1       -0.2680
      5 H         138.6301  138.6914  165.6792 H       1  UNL1        0.1565
      6 H         139.3541  139.1526  168.1313 H       1  UNL1        0.1564
      7 C         139.7331  139.6982  162.9762 C.ar    1  UNL1        0.1040
      8 C         138.7203  140.0773  164.0156 C.ar    1  UNL1        0.0871
      9 C         137.5411  140.9246  163.6398 C.ar    1  UNL1        0.1165
     10 N         137.3746  141.3930  162.2245 N.ar    1  UNL1       -0.2236
     11 C         138.3874  141.0139  161.1851 C.ar    1  UNL1        0.1660
     12 C         138.4877  141.3248  159.7211 C.ar    1  UNL1        0.0713
     13 C         139.7290  140.6696  159.1921 C.ar    1  UNL1        0.1613
     14 CL        140.2177  140.7211  157.7749 Cl      1  UNL1       -0.0594
     15 N         140.3959  139.9537  160.3292 N.ar    1  UNL1       -0.1523
     16 N         139.5667  140.1665  161.5609 N.ar    1  UNL1       -0.2118
     17 C         140.9124  138.8508  163.3520 C.3     1  UNL1        0.1564
     18 C         141.0662  137.4779  162.7675 C.3     1  UNL1        0.0387
     19 C         142.4618  138.4946  165.4069 C.3     1  UNL1        0.1745
     20 O         141.9380  139.3763  164.3124 O.3     1  UNL1       -0.3476
     21 C         140.1683  140.9997  168.9200 C.ar    1  UNL1        0.0546
     22 C         139.2597  141.6129  169.9437 C.ar    1  UNL1        0.0354
     23 C         139.8172  142.5424  170.9806 C.ar    1  UNL1        0.1000
     24 N         141.2834  142.8587  170.9937 N.ar    1  UNL1       -0.2398
     25 C         142.1921  142.2454  169.9699 C.ar    1  UNL1        0.1539
     26 C         141.6346  141.3159  168.9329 C.ar    1  UNL1        0.0378
     27 C         143.6583  142.5617  169.9829 C.3     1  UNL1        0.4349
     28 F         145.1246  142.8780  169.9960 F       1  UNL1       -0.1644
     29 F         143.4176  143.6354  171.0023 F       1  UNL1       -0.1644
     30 F         143.8990  141.4879  168.9635 F       1  UNL1       -0.1644
@<TRIPOS>BOND
     1    19    20    1
     2    20    17    1
     3    17    18    1
     4    17     7    1
     5     7     8   ar
     6     8     1    1
     7     1     2   am
     8     2     3    2
     9     2     4   am
    10     4    21    1
    11    21    22   ar
    12    22    23   ar
    13    23    24   ar
    14    24    25   ar
    15    25    27    1
    16    27    28    1
    17    27    29    1
    18    27    30    1
    19    25    26   ar
    20     8     9   ar
    21     9    10   ar
    22    10    11   ar
    23    11    12   ar
    24    12    13   ar
    25    13    14    1
    26    13    15   ar
    27    15    16   ar
    28    16     7   ar
    29    26    21   ar
    30    16    11   ar
    31     1     5    1
    32     4     6    1
@<TRIPOS>MOLECULE
*****
 30 32 0 0 0
SMALL
GASTEIGER

@<TRIPOS>ATOM
      1 N         141.4250  144.4095  164.3634 N.am    1  UNL1       -0.2658
      2 C         140.7172  143.2822  165.0549 C.2     1  UNL1        0.3082
      3 O         139.6791  142.4858  164.3212 O.2     1  UNL1       -0.2521
      4 N         141.0474  142.9513  166.4802 N.am    1  UNL1       -0.2680
      5 H         142.1062  144.9322  164.8449 H       1  UNL1        0.1565
      6 H         141.7286  143.4740  166.9617 H       1  UNL1        0.1564
      7 C         141.9675  144.2328  161.8287 C.ar    1  UNL1        0.1040
      8 C         141.0947  144.7404  162.9380 C.ar    1  UNL1        0.0871
      9 C         139.8918  145.5787  162.6220 C.ar    1  UNL1        0.1165
     10 N         139.5615  145.9096  161.1967 N.ar    1  UNL1       -0.2236
     11 C         140.4343  145.4020  160.0874 C.ar    1  UNL1        0.1660
     12 C         140.3605  145.5641  158.5980 C.ar    1  UNL1        0.0713
     13 C         141.5178  144.8258  157.9935 C.ar    1  UNL1        0.1613
     14 CL        141.8311  144.7237  156.5302 Cl      1  UNL1       -0.0594
     15 N         142.3070  144.2075  159.1093 N.ar    1  UNL1       -0.1523
     16 N         141.6373  144.5636  160.4034 N.ar    1  UNL1       -0.2118
     17 C         143.1705  143.3944  162.1447 C.3     1  UNL1        0.1564
     18 C         144.4751  144.0523  162.4840 C.3     1  UNL1        0.0387
     19 C         141.7885  141.2396  161.7006 C.3     1  UNL1        0.1745
     20 O         143.0689  141.8979  162.1214 O.3     1  UNL1       -0.3476
     21 C         140.3395  141.8239  167.1718 C.ar    1  UNL1        0.0546
     22 C         140.1481  141.8586  168.6590 C.ar    1  UNL1        0.0354
     23 C         139.4403  140.7313  169.3506 C.ar    1  UNL1        0.1000
     24 N         138.9240  139.5694  168.5548 N.ar    1  UNL1       -0.2398
     25 C         139.1154  139.5347  167.0675 C.ar    1  UNL1        0.1539
     26 C         139.8232  140.6621  166.3759 C.ar    1  UNL1        0.0378
     27 C         138.5990  138.3728  166.2717 C.3     1  UNL1        0.4349
     28 F         138.0827  137.2108  165.4760 F       1  UNL1       -0.1644
     29 F         139.8590  138.3702  165.4579 F       1  UNL1       -0.1644
     30 F         137.3390  138.3754  167.0857 F       1  UNL1       -0.1644
@<TRIPOS>BOND
     1    19    20    1
     2    20    17    1
     3    17    18    1
     4    17     7    1
     5     7     8   ar
     6     8     1    1
     7     1     2   am
     8     2     3    2
     9     2     4   am
    10     4    21    1
    11    21    22   ar
    12    22    23   ar
    13    23    24   ar
    14    24    25   ar
    15    25    27    1
    16    27    28    1
    17    27    29    1
    18    27    30    1
    19    25    26   ar
    20     8     9   ar
    21     9    10   ar
    22    10    11   ar
    23    11    12   ar
    24    12    13   ar
    25    13    14    1
    26    13    15   ar
    27    15    16   ar
    28    16     7   ar
    29    26    21   ar
    30    16    11   ar
    31     1     5    1
    32     4     6    1
@<TRIPOS>MOLECULE
*****
 30 32 0 0 0
SMALL
GASTEIGER

@<TRIPOS>ATOM
      1 N         141.5965  144.0606  162.5504 N.am    1  UNL1       -0.2658
      2 C         141.4623  143.9973  161.0577 C.2     1  UNL1        0.3082
      3 O         141.0516  142.7158  160.3952 O.2     1  UNL1       -0.2521
      4 N         141.7389  145.2156  160.2276 N.am    1  UNL1       -0.2680
      5 H         141.8661  144.9017  162.9852 H       1  UNL1        0.1565
      6 H         142.0085  146.0568  160.6624 H       1  UNL1        0.1564
      7 C         139.9121  142.5079  163.7759 C.ar    1  UNL1        0.1040
      8 C         141.3199  142.8422  163.3805 C.ar    1  UNL1        0.0871
      9 C         142.4510  141.9582  163.8152 C.ar    1  UNL1        0.1165
     10 N         142.1744  140.7398  164.6454 N.ar    1  UNL1       -0.2236
     11 C         140.7666  140.4055  165.0408 C.ar    1  UNL1        0.1660
     12 C         140.1912  139.2798  165.8480 C.ar    1  UNL1        0.0713
     13 C         138.7045  139.4681  165.9122 C.ar    1  UNL1        0.1613
     14 CL        137.7319  138.5717  166.6197 Cl      1  UNL1       -0.0594
     15 N         138.3610  140.7102  165.1446 N.ar    1  UNL1       -0.1523
     16 N         139.6354  141.2896  164.6060 N.ar    1  UNL1       -0.2118
     17 C         138.7809  143.3920  163.3411 C.3     1  UNL1        0.1564
     18 C         137.8077  142.9103  162.3064 C.3     1  UNL1        0.0387
     19 C         138.6743  144.9333  165.4299 C.3     1  UNL1        0.1745
     20 O         138.6231  144.7577  163.9412 O.3     1  UNL1       -0.3476
     21 C         141.6048  145.1524  158.7348 C.ar    1  UNL1        0.0546
     22 C         142.5314  144.2859  157.9346 C.ar    1  UNL1        0.0354
     23 C         142.3972  144.2226  156.4420 C.ar    1  UNL1        0.1000
     24 N         141.3364  145.0259  155.7496 N.ar    1  UNL1       -0.2398
     25 C         140.4098  145.8924  156.5498 C.ar    1  UNL1        0.1539
     26 C         140.5439  145.9557  158.0426 C.ar    1  UNL1        0.0378
     27 C         139.3490  146.6957  155.8574 C.3     1  UNL1        0.4349
     28 F         138.2882  147.4990  155.1650 F       1  UNL1       -0.1644
     29 F         139.6040  145.9384  154.5880 F       1  UNL1       -0.1644
     30 F         139.0939  147.4531  157.1269 F       1  UNL1       -0.1644
@<TRIPOS>BOND
     1    19    20    1
     2    20    17    1
     3    17    18    1
     4    17     7    1
     5     7     8   ar
     6     8     1    1
     7     1     2   am
     8     2     3    2
     9     2     4   am
    10     4    21    1
    11    21    22   ar
    12    22    23   ar
    13    23    24   ar
    14    24    25   ar
    15    25    27    1
    16    27    28    1
    17    27    29    1
    18    27    30    1
    19    25    26   ar
    20     8     9   ar
    21     9    10   ar
    22    10    11   ar
    23    11    12   ar
    24    12    13   ar
    25    13    14    1
    26    13    15   ar
    27    15    16   ar
    28    16     7   ar
    29    26    21   ar
    30    16    11   ar
    31     1     5    1
    32     4     6    1
@<TRIPOS>MOLECULE
*****
 30 32 0 0 0
SMALL
GASTEIGER

@<TRIPOS>ATOM
      1 N         138.0167  140.9300  164.2683 N.am    1  UNL1       -0.2658
      2 C         139.2959  140.8033  165.0413 C.2     1  UNL1        0.3082
      3 O         140.5982  140.6404  164.3150 O.2     1  UNL1       -0.2521
      4 N         139.2728  140.8394  166.5407 N.am    1  UNL1       -0.2680
      5 H         137.1620  141.0369  164.7450 H       1  UNL1        0.1565
      6 H         138.4181  140.9463  167.0174 H       1  UNL1        0.1564
      7 C         138.3800  142.1323  161.9940 C.ar    1  UNL1        0.1040
      8 C         138.0398  140.8938  162.7688 C.ar    1  UNL1        0.0871
      9 C         137.7228  139.6193  162.0443 C.ar    1  UNL1        0.1165
     10 N         137.7460  139.5832  160.5449 N.ar    1  UNL1       -0.2236
     11 C         138.0862  140.8217  159.7701 C.ar    1  UNL1        0.1660
     12 C         138.1877  141.0880  158.2974 C.ar    1  UNL1        0.0713
     13 C         138.5675  142.5272  158.1118 C.ar    1  UNL1        0.1613
     14 CL        138.7773  143.2214  156.7988 Cl      1  UNL1       -0.0594
     15 N         138.7007  143.1503  159.4697 N.ar    1  UNL1       -0.1523
     16 N         138.4032  142.0962  160.4946 N.ar    1  UNL1       -0.2118
     17 C         138.6970  143.4069  162.7185 C.3     1  UNL1        0.1564
     18 C         137.5860  144.2923  163.1998 C.3     1  UNL1        0.0387
     19 C         140.7778  144.8330  162.0966 C.3     1  UNL1        0.1745
     20 O         140.1252  143.7961  162.9618 O.3     1  UNL1       -0.3476
     21 C         140.5521  140.7127  167.3138 C.ar    1  UNL1        0.0546
     22 C         141.3960  139.4810  167.1706 C.ar    1  UNL1        0.0354
     23 C         142.6751  139.3542  167.9437 C.ar    1  UNL1        0.1000
     24 N         143.1104  140.4593  168.8599 N.ar    1  UNL1       -0.2398
     25 C         142.2664  141.6911  169.0030 C.ar    1  UNL1        0.1539
     26 C         140.9872  141.8178  168.2299 C.ar    1  UNL1        0.0378
     27 C         142.7017  142.7961  169.9192 C.3     1  UNL1        0.4349
     28 F         143.1369  143.9012  170.8354 F       1  UNL1       -0.1644
     29 F         141.3539  143.4402  169.7827 F       1  UNL1       -0.1644
     30 F         144.0495  142.1520  170.0557 F       1  UNL1       -0.1644
@<TRIPOS>BOND
     1    19    20    1
     2    20    17    1
     3    17    18    1
     4    17     7    1
     5     7     8   ar
     6     8     1    1
     7     1     2   am
     8     2     3    2
     9     2     4   am
    10     4    21    1
    11    21    22   ar
    12    22    23   ar
    13    23    24   ar
    14    24    25   ar
    15    25    27    1
    16    27    28    1
    17    27    29    1
    18    27    30    1
    19    25    26   ar
    20     8     9   ar
    21     9    10   ar
    22    10    11   ar
    23    11    12   ar
    24    12    13   ar
    25    13    14    1
    26    13    15   ar
    27    15    16   ar
    28    16     7   ar
    29    26    21   ar
    30    16    11   ar
    31     1     5    1
    32     4     6    1
@<TRIPOS>MOLECULE
*****
 30 32 0 0 0
SMALL
GASTEIGER

@<TRIPOS>ATOM
      1 N         140.3921  140.5506  162.8553 N.am    1  UNL1       -0.2658
      2 C         140.4617  140.9022  164.3118 C.2     1  UNL1        0.3082
      3 O         140.3841  142.3372  164.7416 O.2     1  UNL1       -0.2521
      4 N         140.6090  139.8187  165.3386 N.am    1  UNL1       -0.2680
      5 H         140.4430  139.6088  162.5732 H       1  UNL1        0.1565
      6 H         140.6600  138.8768  165.0566 H       1  UNL1        0.1564
      7 C         141.4639  142.2724  161.2315 C.ar    1  UNL1        0.1040
      8 C         140.2447  141.6342  161.8285 C.ar    1  UNL1        0.0871
      9 C         138.8784  142.0795  161.3987 C.ar    1  UNL1        0.1165
     10 N         138.7311  143.1630  160.3719 N.ar    1  UNL1       -0.2236
     11 C         139.9502  143.8012  159.7749 C.ar    1  UNL1        0.1660
     12 C         140.1165  144.8843  158.7505 C.ar    1  UNL1        0.0713
     13 C         141.5857  145.1083  158.5472 C.ar    1  UNL1        0.1613
     14 CL        142.2046  146.1023  157.6097 Cl      1  UNL1       -0.0594
     15 N         142.3274  144.1637  159.4459 N.ar    1  UNL1       -0.1523
     16 N         141.3166  143.3559  160.2047 N.ar    1  UNL1       -0.2118
     17 C         142.8302  141.8271  161.6613 C.3     1  UNL1        0.1564
     18 C         143.5742  140.8047  160.8543 C.3     1  UNL1        0.0387
     19 C         144.6562  143.2923  162.7877 C.3     1  UNL1        0.1745
     20 O         143.4526  142.4041  162.8982 O.3     1  UNL1       -0.3476
     21 C         140.6787  140.1702  166.7953 C.ar    1  UNL1        0.0546
     22 C         139.4853  139.9523  167.6773 C.ar    1  UNL1        0.0354
     23 C         139.5549  140.3038  169.1338 C.ar    1  UNL1        0.1000
     24 N         140.8180  140.8733  169.7083 N.ar    1  UNL1       -0.2398
     25 C         142.0116  141.0913  168.8263 C.ar    1  UNL1        0.1539
     26 C         141.9419  140.7398  167.3696 C.ar    1  UNL1        0.0378
     27 C         143.2747  141.6609  169.4008 C.3     1  UNL1        0.4349
     28 F         144.5379  142.2304  169.9753 F       1  UNL1       -0.1644
     29 F         143.2161  142.7878  168.4126 F       1  UNL1       -0.1644
     30 F         143.3333  140.5339  170.3890 F       1  UNL1       -0.1644
@<TRIPOS>BOND
     1    19    20    1
     2    20    17    1
     3    17    18    1
     4    17     7    1
     5     7     8   ar
     6     8     1    1
     7     1     2   am
     8     2     3    2
     9     2     4   am
    10     4    21    1
    11    21    22   ar
    12    22    23   ar
    13    23    24   ar
    14    24    25   ar
    15    25    27    1
    16    27    28    1
    17    27    29    1
    18    27    30    1
    19    25    26   ar
    20     8     9   ar
    21     9    10   ar
    22    10    11   ar
    23    11    12   ar
    24    12    13   ar
    25    13    14    1
    26    13    15   ar
    27    15    16   ar
    28    16     7   ar
    29    26    21   ar
    30    16    11   ar
    31     1     5    1
    32     4     6    1
@<TRIPOS>MOLECULE
*****
 30 32 0 0 0
SMALL
GASTEIGER

@<TRIPOS>ATOM
      1 N         139.0174  142.8668  163.9056 N.am    1  UNL1       -0.2658
      2 C         140.1044  142.4545  164.8534 C.2     1  UNL1        0.3082
      3 O         141.5357  142.7745  164.5382 O.2     1  UNL1       -0.2521
      4 N         139.7604  141.7221  166.1164 N.am    1  UNL1       -0.2680
      5 H         138.0781  142.6567  164.1125 H       1  UNL1        0.1565
      6 H         138.8210  141.5121  166.3233 H       1  UNL1        0.1564
      7 C         139.6722  142.8319  161.3917 C.ar    1  UNL1        0.1040
      8 C         139.3616  143.5992  162.6426 C.ar    1  UNL1        0.0871
      9 C         139.3950  145.0987  162.6304 C.ar    1  UNL1        0.1165
     10 N         139.7392  145.8310  161.3674 N.ar    1  UNL1       -0.2236
     11 C         140.0499  145.0637  160.1165 C.ar    1  UNL1        0.1660
     12 C         140.4198  145.5080  158.7324 C.ar    1  UNL1        0.0713
     13 C         140.6149  144.2829  157.8891 C.ar    1  UNL1        0.1613
     14 CL        140.9930  144.2627  156.4376 Cl      1  UNL1       -0.0594
     15 N         140.3657  143.0816  158.7520 N.ar    1  UNL1       -0.1523
     16 N         140.0164  143.5642  160.1287 N.ar    1  UNL1       -0.2118
     17 C         139.6388  141.3323  161.4039 C.3     1  UNL1        0.1564
     18 C         140.9080  140.5523  161.2286 C.3     1  UNL1        0.0387
     19 C         138.1938  139.5903  162.6796 C.3     1  UNL1        0.1745
     20 O         138.3360  140.6126  161.5913 O.3     1  UNL1       -0.3476
     21 C         140.8475  141.3098  167.0643 C.ar    1  UNL1        0.0546
     22 C         141.4080  139.9199  167.0036 C.ar    1  UNL1        0.0354
     23 C         142.4951  139.5076  167.9514 C.ar    1  UNL1        0.1000
     24 N         143.0216  140.4852  168.9598 N.ar    1  UNL1       -0.2398
     25 C         142.4610  141.8752  169.0205 C.ar    1  UNL1        0.1539
     26 C         141.3739  142.2876  168.0727 C.ar    1  UNL1        0.0378
     27 C         142.9875  142.8529  170.0289 C.3     1  UNL1        0.4349
     28 F         143.5140  143.8306  171.0373 F       1  UNL1       -0.1644
     29 F         144.2965  142.1209  170.0551 F       1  UNL1       -0.1644
     30 F         141.6784  143.5849  170.0026 F       1  UNL1       -0.1644
@<TRIPOS>BOND
     1    19    20    1
     2    20    17    1
     3    17    18    1
     4    17     7    1
     5     7     8   ar
     6     8     1    1
     7     1     2   am
     8     2     3    2
     9     2     4   am
    10     4    21    1
    11    21    22   ar
    12    22    23   ar
    13    23    24   ar
    14    24    25   ar
    15    25    27    1
    16    27    28    1
    17    27    29    1
    18    27    30    1
    19    25    26   ar
    20     8     9   ar
    21     9    10   ar
    22    10    11   ar
    23    11    12   ar
    24    12    13   ar
    25    13    14    1
    26    13    15   ar
    27    15    16   ar
    28    16     7   ar
    29    26    21   ar
    30    16    11   ar
    31     1     5    1
    32     4     6    1
