@<TRIPOS>MOLECULE
*****
 25 28 0 0 0
SMALL
GASTEIGER

@<TRIPOS>ATOM
      1 C         141.7507  143.6053  162.7587 C.ar    1  UNL1        0.1169
      2 C         142.9541  144.0539  163.5336 C.ar    1  UNL1        0.0223
      3 C         143.3893  143.2922  164.7502 C.ar    1  UNL1        0.0031
      4 C         142.6211  142.0819  165.1920 C.ar    1  UNL1        0.0174
      5 C         143.0564  141.3202  166.4088 C.ar    1  UNL1       -0.0027
      6 C         142.2882  140.1099  166.8505 C.ar    1  UNL1       -0.0207
      7 C         141.0847  139.6614  166.0755 C.ar    1  UNL1       -0.0027
      8 C         140.6495  140.4231  164.8589 C.ar    1  UNL1        0.0188
      9 C         141.4177  141.6334  164.4171 C.ar    1  UNL1        0.0813
     10 N         140.9825  142.3951  163.2004 N.ar    1  UNL1       -0.2422
     11 C         141.6765  145.7361  157.9280 C.3     1  UNL1        0.0950
     12 C         141.2813  145.3464  159.3215 C.ar    1  UNL1        0.2060
     13 N         140.0098  145.7319  160.0177 N.ar    1  UNL1       -0.2164
     14 C         140.0309  145.1266  161.3900 C.ar    1  UNL1        0.0981
     15 C         138.9561  145.2578  162.4281 C.3     1  UNL1        0.0555
     16 C         141.3154  144.3670  161.5419 C.ar    1  UNL1        0.1777
     17 O         142.0882  144.5029  160.2635 O.2     1  UNL1       -0.4372
     18 C         142.7234  139.3482  168.0672 C.3     1  UNL1        0.0437
     19 C         142.1390  139.6797  169.4084 C.3     1  UNL1        0.0768
     20 N         141.5746  141.0458  169.6637 N.3     1  UNL1       -0.2737
     21 C         140.1198  141.3897  169.7873 C.3     1  UNL1        0.0721
     22 C         140.0119  142.8643  170.0402 C.3     1  UNL1        0.0187
     23 C         141.4001  143.4317  170.0730 C.3     1  UNL1        0.0174
     24 C         142.3658  142.3078  169.8403 C.3     1  UNL1        0.0576
     25 C         143.8605  142.4253  169.7925 C.3     1  UNL1        0.0173
@<TRIPOS>BOND
     1    11    12    1
     2    12    13   ar
     3    13    14   ar
     4    14    15    1
     5    14    16   ar
     6    16     1    1
     7     1     2   ar
     8     2     3   ar
     9     3     4   ar
    10     4     5   ar
    11     5     6   ar
    12     6    18    1
    13    18    19    1
    14    19    20    1
    15    20    21    1
    16    21    22    1
    17    22    23    1
    18    23    24    1
    19    24    25    1
    20     6     7   ar
    21     7     8   ar
    22     8     9   ar
    23     9    10   ar
    24    16    17   ar
    25    17    12   ar
    26    10     1   ar
    27     9     4   ar
    28    24    20    1
@<TRIPOS>MOLECULE
*****
 25 28 0 0 0
SMALL
GASTEIGER

@<TRIPOS>ATOM
      1 C         141.4040  138.2633  159.6382 C.ar    1  UNL1        0.1169
      2 C         139.9357  138.5347  159.4950 C.ar    1  UNL1        0.0223
      3 C         139.0385  138.4585  160.6946 C.ar    1  UNL1        0.0031
      4 C         139.6094  138.1110  162.0374 C.ar    1  UNL1        0.0174
      5 C         138.7121  138.0348  163.2370 C.ar    1  UNL1       -0.0027
      6 C         139.2830  137.6872  164.5798 C.ar    1  UNL1       -0.0207
      7 C         140.7514  137.4158  164.7230 C.ar    1  UNL1       -0.0027
      8 C         141.6486  137.4920  163.5235 C.ar    1  UNL1        0.0188
      9 C         141.0777  137.8396  162.1806 C.ar    1  UNL1        0.0813
     10 N         141.9749  137.9157  160.9810 N.ar    1  UNL1       -0.2422
     11 C         144.1246  136.9421  155.3099 C.3     1  UNL1        0.0950
     12 C         143.5518  137.7322  156.4491 C.ar    1  UNL1        0.2060
     13 N         143.8125  139.1812  156.7361 N.ar    1  UNL1       -0.2164
     14 C         143.0397  139.5565  157.9657 C.ar    1  UNL1        0.0981
     15 C         143.0103  140.9111  158.6094 C.3     1  UNL1        0.0555
     16 C         142.3013  138.3394  158.4386 C.ar    1  UNL1        0.1777
     17 O         142.6179  137.2120  157.5013 O.2     1  UNL1       -0.4372
     18 C         138.3858  137.6111  165.7794 C.3     1  UNL1        0.0437
     19 C         138.0306  138.8598  166.5309 C.3     1  UNL1        0.0768
     20 N         139.0225  139.9801  166.6352 N.3     1  UNL1       -0.2737
     21 C         140.0954  140.1138  167.6750 C.3     1  UNL1        0.0721
     22 C         140.8517  141.3798  167.4005 C.3     1  UNL1        0.0187
     23 C         140.2462  142.0285  166.1911 C.3     1  UNL1        0.0174
     24 C         139.1157  141.1634  165.7181 C.3     1  UNL1        0.0576
     25 C         138.2334  141.4342  164.5357 C.3     1  UNL1        0.0173
@<TRIPOS>BOND
     1    11    12    1
     2    12    13   ar
     3    13    14   ar
     4    14    15    1
     5    14    16   ar
     6    16     1    1
     7     1     2   ar
     8     2     3   ar
     9     3     4   ar
    10     4     5   ar
    11     5     6   ar
    12     6    18    1
    13    18    19    1
    14    19    20    1
    15    20    21    1
    16    21    22    1
    17    22    23    1
    18    23    24    1
    19    24    25    1
    20     6     7   ar
    21     7     8   ar
    22     8     9   ar
    23     9    10   ar
    24    16    17   ar
    25    17    12   ar
    26    10     1   ar
    27     9     4   ar
    28    24    20    1
@<TRIPOS>MOLECULE
*****
 25 28 0 0 0
SMALL
GASTEIGER

@<TRIPOS>ATOM
      1 C         139.8611  138.8511  162.2359 C.ar    1  UNL1        0.1169
      2 C         139.1165  137.7256  162.8907 C.ar    1  UNL1        0.0223
      3 C         138.8444  137.7640  164.3652 C.ar    1  UNL1        0.0031
      4 C         139.3170  138.9279  165.1850 C.ar    1  UNL1        0.0174
      5 C         139.0449  138.9663  166.6597 C.ar    1  UNL1       -0.0027
      6 C         139.5174  140.1302  167.4795 C.ar    1  UNL1       -0.0207
      7 C         140.2621  141.2557  166.8246 C.ar    1  UNL1       -0.0027
      8 C         140.5341  141.2173  165.3500 C.ar    1  UNL1        0.0188
      9 C         140.0616  140.0534  164.5302 C.ar    1  UNL1        0.0813
     10 N         140.3337  140.0150  163.0557 N.ar    1  UNL1       -0.2422
     11 C         142.2244  138.0362  157.5848 C.3     1  UNL1        0.0950
     12 C         141.2195  138.4382  158.6234 C.ar    1  UNL1        0.2060
     13 N         139.8842  139.0693  158.3606 N.ar    1  UNL1       -0.2164
     14 C         139.2129  139.3008  159.6818 C.ar    1  UNL1        0.0981
     15 C         137.8591  139.9128  159.8876 C.3     1  UNL1        0.0555
     16 C         140.1332  138.8127  160.7612 C.ar    1  UNL1        0.1777
     17 O         141.3733  138.2796  160.1070 O.2     1  UNL1       -0.4372
     18 C         139.2454  140.1686  168.9541 C.3     1  UNL1        0.0437
     19 C         140.3749  140.0163  169.9294 C.3     1  UNL1        0.0768
     20 N         141.4692  141.0410  169.9756 N.3     1  UNL1       -0.2737
     21 C         142.9326  140.7778  169.7771 C.3     1  UNL1        0.0721
     22 C         143.6602  142.0830  169.9072 C.3     1  UNL1        0.0187
     23 C         142.6465  143.1529  170.1861 C.3     1  UNL1        0.0174
     24 C         141.2925  142.5089  170.2284 C.3     1  UNL1        0.0576
     25 C         139.9903  143.2098  170.4794 C.3     1  UNL1        0.0173
@<TRIPOS>BOND
     1    11    12    1
     2    12    13   ar
     3    13    14   ar
     4    14    15    1
     5    14    16   ar
     6    16     1    1
     7     1     2   ar
     8     2     3   ar
     9     3     4   ar
    10     4     5   ar
    11     5     6   ar
    12     6    18    1
    13    18    19    1
    14    19    20    1
    15    20    21    1
    16    21    22    1
    17    22    23    1
    18    23    24    1
    19    24    25    1
    20     6     7   ar
    21     7     8   ar
    22     8     9   ar
    23     9    10   ar
    24    16    17   ar
    25    17    12   ar
    26    10     1   ar
    27     9     4   ar
    28    24    20    1
@<TRIPOS>MOLECULE
*****
 25 28 0 0 0
SMALL
GASTEIGER

@<TRIPOS>ATOM
      1 C         142.6705  138.2405  159.9362 C.ar    1  UNL1        0.1169
      2 C         143.8138  139.1399  160.3017 C.ar    1  UNL1        0.0223
      3 C         144.1121  139.4254  161.7437 C.ar    1  UNL1        0.0031
      4 C         143.2669  138.8116  162.8202 C.ar    1  UNL1        0.0174
      5 C         143.5652  139.0971  164.2623 C.ar    1  UNL1       -0.0027
      6 C         142.7201  138.4833  165.3388 C.ar    1  UNL1       -0.0207
      7 C         141.5766  137.5838  164.9732 C.ar    1  UNL1       -0.0027
      8 C         141.2784  137.2982  163.5312 C.ar    1  UNL1        0.0188
      9 C         142.1236  137.9121  162.4547 C.ar    1  UNL1        0.0813
     10 N         141.8253  137.6266  161.0127 N.ar    1  UNL1       -0.2422
     11 C         143.0110  136.3570  155.0150 C.3     1  UNL1        0.0950
     12 C         142.5287  137.0892  156.2321 C.ar    1  UNL1        0.2060
     13 N         141.2975  137.9417  156.3179 N.ar    1  UNL1       -0.2164
     14 C         141.2008  138.4767  157.7159 C.ar    1  UNL1        0.0981
     15 C         140.1220  139.3758  158.2432 C.3     1  UNL1        0.0555
     16 C         142.3722  137.9549  158.4941 C.ar    1  UNL1        0.1777
     17 O         143.1928  137.0973  157.5770 O.2     1  UNL1       -0.4372
     18 C         143.0183  138.7688  166.7808 C.3     1  UNL1        0.0437
     19 C         142.5901  140.0701  167.3919 C.3     1  UNL1        0.0768
     20 N         141.4439  140.1035  168.3587 N.3     1  UNL1       -0.2737
     21 C         141.5510  140.0738  169.8546 C.3     1  UNL1        0.0721
     22 C         140.1625  140.1243  170.4199 C.3     1  UNL1        0.0187
     23 C         139.1972  140.1852  169.2733 C.3     1  UNL1        0.0174
     24 C         139.9892  140.1723  167.9995 C.3     1  UNL1        0.0576
     25 C         139.4253  140.2199  166.6103 C.3     1  UNL1        0.0173
@<TRIPOS>BOND
     1    11    12    1
     2    12    13   ar
     3    13    14   ar
     4    14    15    1
     5    14    16   ar
     6    16     1    1
     7     1     2   ar
     8     2     3   ar
     9     3     4   ar
    10     4     5   ar
    11     5     6   ar
    12     6    18    1
    13    18    19    1
    14    19    20    1
    15    20    21    1
    16    21    22    1
    17    22    23    1
    18    23    24    1
    19    24    25    1
    20     6     7   ar
    21     7     8   ar
    22     8     9   ar
    23     9    10   ar
    24    16    17   ar
    25    17    12   ar
    26    10     1   ar
    27     9     4   ar
    28    24    20    1
@<TRIPOS>MOLECULE
*****
 25 28 0 0 0
SMALL
GASTEIGER

@<TRIPOS>ATOM
      1 C         141.6886  138.5840  159.4472 C.ar    1  UNL1        0.1169
      2 C         140.2009  138.6204  159.2592 C.ar    1  UNL1        0.0223
      3 C         139.2913  138.3893  160.4293 C.ar    1  UNL1        0.0031
      4 C         139.8693  138.1218  161.7873 C.ar    1  UNL1        0.0174
      5 C         138.9596  137.8908  162.9574 C.ar    1  UNL1       -0.0027
      6 C         139.5376  137.6233  164.3155 C.ar    1  UNL1       -0.0207
      7 C         141.0254  137.5869  164.5034 C.ar    1  UNL1       -0.0027
      8 C         141.9351  137.8180  163.3334 C.ar    1  UNL1        0.0188
      9 C         141.3570  138.0855  161.9753 C.ar    1  UNL1        0.0813
     10 N         142.2667  138.3165  160.8053 N.ar    1  UNL1       -0.2422
     11 C         145.0533  140.8621  156.0751 C.3     1  UNL1        0.0950
     12 C         144.1449  139.8622  156.7272 C.ar    1  UNL1        0.2060
     13 N         143.8516  138.4791  156.2260 N.ar    1  UNL1       -0.2164
     14 C         142.8958  137.8320  157.1839 C.ar    1  UNL1        0.0981
     15 C         142.3358  136.4453  157.0689 C.3     1  UNL1        0.0555
     16 C         142.5984  138.8151  158.2771 C.ar    1  UNL1        0.1777
     17 O         143.3703  140.0698  157.9948 O.2     1  UNL1       -0.4372
     18 C         138.6280  137.3922  165.4855 C.3     1  UNL1        0.0437
     19 C         138.0914  138.5592  166.2604 C.3     1  UNL1        0.0768
     20 N         138.9351  139.7846  166.4509 N.3     1  UNL1       -0.2737
     21 C         139.9069  140.0209  167.5689 C.3     1  UNL1        0.0721
     22 C         140.5275  141.3713  167.3659 C.3     1  UNL1        0.0187
     23 C         139.9393  141.9696  166.1225 C.3     1  UNL1        0.0174
     24 C         138.9551  140.9890  165.5570 C.3     1  UNL1        0.0576
     25 C         138.1350  141.1793  164.3156 C.3     1  UNL1        0.0173
@<TRIPOS>BOND
     1    11    12    1
     2    12    13   ar
     3    13    14   ar
     4    14    15    1
     5    14    16   ar
     6    16     1    1
     7     1     2   ar
     8     2     3   ar
     9     3     4   ar
    10     4     5   ar
    11     5     6   ar
    12     6    18    1
    13    18    19    1
    14    19    20    1
    15    20    21    1
    16    21    22    1
    17    22    23    1
    18    23    24    1
    19    24    25    1
    20     6     7   ar
    21     7     8   ar
    22     8     9   ar
    23     9    10   ar
    24    16    17   ar
    25    17    12   ar
    26    10     1   ar
    27     9     4   ar
    28    24    20    1
@<TRIPOS>MOLECULE
*****
 25 28 0 0 0
SMALL
GASTEIGER

@<TRIPOS>ATOM
      1 C         142.6423  138.2117  159.8977 C.ar    1  UNL1        0.1169
      2 C         143.7898  139.1166  160.2358 C.ar    1  UNL1        0.0223
      3 C         144.1067  139.4221  161.6697 C.ar    1  UNL1        0.0031
      4 C         143.2761  138.8228  162.7655 C.ar    1  UNL1        0.0174
      5 C         143.5931  139.1284  164.1995 C.ar    1  UNL1       -0.0027
      6 C         142.7624  138.5291  165.2954 C.ar    1  UNL1       -0.0207
      7 C         141.6148  137.6242  164.9573 C.ar    1  UNL1       -0.0027
      8 C         141.2979  137.3186  163.5233 C.ar    1  UNL1        0.0188
      9 C         142.1285  137.9180  162.4275 C.ar    1  UNL1        0.0813
     10 N         141.8116  137.6124  160.9936 N.ar    1  UNL1       -0.2422
     11 C         143.0201  136.4358  154.9394 C.3     1  UNL1        0.0950
     12 C         142.4989  137.0898  156.1847 C.ar    1  UNL1        0.2060
     13 N         141.1760  137.7819  156.3296 N.ar    1  UNL1       -0.2164
     14 C         141.0687  138.2864  157.7382 C.ar    1  UNL1        0.0981
     15 C         139.9085  139.0390  158.3191 C.3     1  UNL1        0.0555
     16 C         142.3253  137.9061  158.4637 C.ar    1  UNL1        0.1777
     17 O         143.2092  137.1666  157.5036 O.2     1  UNL1       -0.4372
     18 C         143.0794  138.8347  166.7293 C.3     1  UNL1        0.0437
     19 C         142.2495  139.8297  167.4853 C.3     1  UNL1        0.0768
     20 N         141.4888  140.8889  166.7442 N.3     1  UNL1       -0.2737
     21 C         140.0098  140.9004  166.4941 C.3     1  UNL1        0.0721
     22 C         139.6805  142.1413  165.7184 C.3     1  UNL1        0.0187
     23 C         140.9559  142.8968  165.4892 C.3     1  UNL1        0.0174
     24 C         142.0735  142.1228  166.1231 C.3     1  UNL1        0.0576
     25 C         143.5215  142.5140  166.1341 C.3     1  UNL1        0.0173
@<TRIPOS>BOND
     1    11    12    1
     2    12    13   ar
     3    13    14   ar
     4    14    15    1
     5    14    16   ar
     6    16     1    1
     7     1     2   ar
     8     2     3   ar
     9     3     4   ar
    10     4     5   ar
    11     5     6   ar
    12     6    18    1
    13    18    19    1
    14    19    20    1
    15    20    21    1
    16    21    22    1
    17    22    23    1
    18    23    24    1
    19    24    25    1
    20     6     7   ar
    21     7     8   ar
    22     8     9   ar
    23     9    10   ar
    24    16    17   ar
    25    17    12   ar
    26    10     1   ar
    27     9     4   ar
    28    24    20    1
@<TRIPOS>MOLECULE
*****
 25 28 0 0 0
SMALL
GASTEIGER

@<TRIPOS>ATOM
      1 C         142.1869  142.0936  167.0586 C.ar    1  UNL1        0.1169
      2 C         143.3857  142.3957  166.2091 C.ar    1  UNL1        0.0223
      3 C         143.2345  143.2190  164.9644 C.ar    1  UNL1        0.0031
      4 C         141.8847  143.7403  164.5693 C.ar    1  UNL1        0.0174
      5 C         141.7336  144.5637  163.3245 C.ar    1  UNL1       -0.0027
      6 C         140.3837  145.0849  162.9294 C.ar    1  UNL1       -0.0207
      7 C         139.1849  144.7828  163.7790 C.ar    1  UNL1       -0.0027
      8 C         139.3360  143.9594  165.0236 C.ar    1  UNL1        0.0188
      9 C         140.6859  143.4382  165.4188 C.ar    1  UNL1        0.0813
     10 N         140.8370  142.6148  166.6634 N.ar    1  UNL1       -0.2422
     11 C         142.9513  138.0081  170.3152 C.3     1  UNL1        0.0950
     12 C         142.6893  139.3923  169.8002 C.ar    1  UNL1        0.2060
     13 N         142.4516  140.6142  170.6373 N.ar    1  UNL1       -0.2164
     14 C         142.2345  141.7748  169.7121 C.ar    1  UNL1        0.0981
     15 C         141.9617  143.1912  170.1236 C.3     1  UNL1        0.0555
     16 C         142.3380  141.2702  168.3033 C.ar    1  UNL1        0.1777
     17 O         142.6191  139.7978  168.3578 O.2     1  UNL1       -0.4372
     18 C         140.2326  145.9083  161.6847 C.3     1  UNL1        0.0437
     19 C         140.0951  145.2343  160.3517 C.3     1  UNL1        0.0768
     20 N         140.1144  143.7371  160.2627 N.3     1  UNL1       -0.2737
     21 C         138.9211  142.8329  160.3551 C.3     1  UNL1        0.0721
     22 C         139.3996  141.4181  160.2152 C.3     1  UNL1        0.0187
     23 C         140.8887  141.4480  160.0364 C.3     1  UNL1        0.0174
     24 C         141.3304  142.8812  160.0658 C.3     1  UNL1        0.0576
     25 C         142.7406  143.3722  159.9232 C.3     1  UNL1        0.0173
@<TRIPOS>BOND
     1    11    12    1
     2    12    13   ar
     3    13    14   ar
     4    14    15    1
     5    14    16   ar
     6    16     1    1
     7     1     2   ar
     8     2     3   ar
     9     3     4   ar
    10     4     5   ar
    11     5     6   ar
    12     6    18    1
    13    18    19    1
    14    19    20    1
    15    20    21    1
    16    21    22    1
    17    22    23    1
    18    23    24    1
    19    24    25    1
    20     6     7   ar
    21     7     8   ar
    22     8     9   ar
    23     9    10   ar
    24    16    17   ar
    25    17    12   ar
    26    10     1   ar
    27     9     4   ar
    28    24    20    1
@<TRIPOS>MOLECULE
*****
 25 28 0 0 0
SMALL
GASTEIGER

@<TRIPOS>ATOM
      1 C         141.0207  144.9259  159.8546 C.ar    1  UNL1        0.1169
      2 C         140.2522  145.5398  160.9871 C.ar    1  UNL1        0.0223
      3 C         140.6921  145.3114  162.4028 C.ar    1  UNL1        0.0031
      4 C         141.9006  144.4692  162.6860 C.ar    1  UNL1        0.0174
      5 C         142.3405  144.2408  164.1018 C.ar    1  UNL1       -0.0027
      6 C         143.5489  143.3986  164.3851 C.ar    1  UNL1       -0.0207
      7 C         144.3175  142.7847  163.2526 C.ar    1  UNL1       -0.0027
      8 C         143.8775  143.0130  161.8369 C.ar    1  UNL1        0.0188
      9 C         142.6691  143.8553  161.5536 C.ar    1  UNL1        0.0813
     10 N         142.2291  144.0836  160.1379 N.ar    1  UNL1       -0.2422
     11 C         140.3436  147.1146  155.0973 C.3     1  UNL1        0.0950
     12 C         140.2695  146.1603  156.2521 C.ar    1  UNL1        0.2060
     13 N         139.5379  144.8508  156.2683 N.ar    1  UNL1       -0.2164
     14 C         139.7303  144.2291  157.6197 C.ar    1  UNL1        0.0981
     15 C         139.1705  142.9132  158.0726 C.3     1  UNL1        0.0555
     16 C         140.5807  145.1542  158.4388 C.ar    1  UNL1        0.1777
     17 O         140.9140  146.3477  157.5936 O.2     1  UNL1       -0.4372
     18 C         143.9889  143.1702  165.8008 C.3     1  UNL1        0.0437
     19 C         143.3535  142.0844  166.6178 C.3     1  UNL1        0.0768
     20 N         142.3790  142.4349  167.7028 N.3     1  UNL1       -0.2737
     21 C         140.9105  142.6822  167.5229 C.3     1  UNL1        0.0721
     22 C         140.3258  142.9998  168.8673 C.3     1  UNL1        0.0187
     23 C         141.4330  142.9488  169.8780 C.3     1  UNL1        0.0174
     24 C         142.7019  142.5997  169.1584 C.3     1  UNL1        0.0576
     25 C         144.0560  142.4429  169.7844 C.3     1  UNL1        0.0173
@<TRIPOS>BOND
     1    11    12    1
     2    12    13   ar
     3    13    14   ar
     4    14    15    1
     5    14    16   ar
     6    16     1    1
     7     1     2   ar
     8     2     3   ar
     9     3     4   ar
    10     4     5   ar
    11     5     6   ar
    12     6    18    1
    13    18    19    1
    14    19    20    1
    15    20    21    1
    16    21    22    1
    17    22    23    1
    18    23    24    1
    19    24    25    1
    20     6     7   ar
    21     7     8   ar
    22     8     9   ar
    23     9    10   ar
    24    16    17   ar
    25    17    12   ar
    26    10     1   ar
    27     9     4   ar
    28    24    20    1
@<TRIPOS>MOLECULE
*****
 25 28 0 0 0
SMALL
GASTEIGER

@<TRIPOS>ATOM
      1 C         138.3336  140.6354  160.3529 C.ar    1  UNL1        0.1169
      2 C         137.9667  141.8659  161.1283 C.ar    1  UNL1        0.0223
      3 C         137.9136  141.8202  162.6266 C.ar    1  UNL1        0.0031
      4 C         138.2274  140.5439  163.3496 C.ar    1  UNL1        0.0174
      5 C         138.1743  140.4982  164.8480 C.ar    1  UNL1       -0.0027
      6 C         138.4881  139.2220  165.5710 C.ar    1  UNL1       -0.0207
      7 C         138.8550  137.9914  164.7956 C.ar    1  UNL1       -0.0027
      8 C         138.9082  138.0372  163.2972 C.ar    1  UNL1        0.0188
      9 C         138.5943  139.3134  162.5743 C.ar    1  UNL1        0.0813
     10 N         138.6474  139.3592  161.0759 N.ar    1  UNL1       -0.2422
     11 C         136.9425  140.3459  155.2674 C.3     1  UNL1        0.0950
     12 C         137.7473  140.5481  156.5170 C.ar    1  UNL1        0.2060
     13 N         139.1897  140.9550  156.5806 N.ar    1  UNL1       -0.2164
     14 C         139.5849  141.0372  158.0252 C.ar    1  UNL1        0.0981
     15 C         140.9402  141.4101  158.5487 C.3     1  UNL1        0.0555
     16 C         138.3867  140.6812  158.8545 C.ar    1  UNL1        0.1777
     17 O         137.2511  140.3788  157.9224 O.2     1  UNL1       -0.4372
     18 C         138.4350  139.1762  167.0693 C.3     1  UNL1        0.0437
     19 C         139.4681  139.9024  167.8790 C.3     1  UNL1        0.0768
     20 N         140.7781  140.2832  167.2555 N.3     1  UNL1       -0.2737
     21 C         141.9344  139.3621  167.0014 C.3     1  UNL1        0.0721
     22 C         143.0328  140.1615  166.3654 C.3     1  UNL1        0.0187
     23 C         142.5553  141.5767  166.2264 C.3     1  UNL1        0.0174
     24 C         141.1618  141.6519  166.7765 C.3     1  UNL1        0.0576
     25 C         140.3029  142.8801  166.8370 C.3     1  UNL1        0.0173
@<TRIPOS>BOND
     1    11    12    1
     2    12    13   ar
     3    13    14   ar
     4    14    15    1
     5    14    16   ar
     6    16     1    1
     7     1     2   ar
     8     2     3   ar
     9     3     4   ar
    10     4     5   ar
    11     5     6   ar
    12     6    18    1
    13    18    19    1
    14    19    20    1
    15    20    21    1
    16    21    22    1
    17    22    23    1
    18    23    24    1
    19    24    25    1
    20     6     7   ar
    21     7     8   ar
    22     8     9   ar
    23     9    10   ar
    24    16    17   ar
    25    17    12   ar
    26    10     1   ar
    27     9     4   ar
    28    24    20    1
