@<TRIPOS>MOLECULE
*****
 34 37 0 0 0
SMALL
GASTEIGER

@<TRIPOS>ATOM
      1 C         142.4796  141.0234  167.5005 C.3     1  UNL1        0.0997
      2 C         142.2294  141.7475  166.2110 C.3     1  UNL1        0.0104
      3 C         140.8237  141.9779  165.7408 C.3     1  UNL1        0.0009
      4 C         140.5735  142.7021  164.4512 C.3     1  UNL1        0.0044
      5 C         141.7288  143.1958  163.6319 C.3     1  UNL1        0.0239
      6 C         143.1345  142.9654  164.1021 C.3     1  UNL1        0.0044
      7 C         143.3847  142.2413  165.3916 C.3     1  UNL1        0.0009
      8 C         141.4786  143.9200  162.3422 C.ar    1  UNL1       -0.0032
      9 C         140.3850  144.9429  162.2565 C.ar    1  UNL1        0.0004
     10 C         140.1348  145.6671  160.9668 C.ar    1  UNL1        0.0386
     11 C         140.9783  145.3683  159.7631 C.ar    1  UNL1        0.1656
     12 N         140.9661  145.9179  158.3675 N.ar    1  UNL1       -0.2034
     13 C         142.0523  145.2346  157.5907 C.ar    1  UNL1        0.2213
     14 N         142.7358  144.2627  158.5063 N.ar    1  UNL1       -0.1409
     15 N         142.0720  144.3453  159.8489 N.ar    1  UNL1       -0.2095
     16 C         142.3222  143.6212  161.1385 C.ar    1  UNL1        0.0978
     17 C         141.0278  142.4052  170.9258 C.3     1  UNL1        0.1149
     18 N         141.1262  141.6705  169.6217 N.am    1  UNL1       -0.2760
     19 C         139.9700  140.8483  169.1348 C.3     1  UNL1        0.1149
     20 C         142.3811  141.7580  168.8046 C.2     1  UNL1        0.2271
     21 O         143.5373  142.5802  169.2915 O.2     1  UNL1       -0.2748
     22 C         142.8285  139.5646  167.4860 C.3     1  UNL1        0.1371
     23 N         142.9348  138.8060  168.7758 N.3     1  UNL1       -0.3146
     24 H         142.7399  139.4333  169.5562 H       1  UNL1        0.1192
     25 H         143.8771  138.4275  168.8709 H       1  UNL1        0.1192
     26 C         143.0711  138.8644  166.1819 C.2     1  UNL1        0.2403
     27 O         144.4734  138.6543  165.6928 O.2     1  UNL1       -0.2734
     28 N         141.9112  138.3742  165.3667 N.am    1  UNL1       -0.2730
     29 C         141.9978  137.6610  164.0500 C.3     1  UNL1        0.0993
     30 C         140.6012  137.3572  163.5946 C.3     1  UNL1        0.0898
     31 C         139.6515  137.8828  164.6299 C.3     1  UNL1        0.2835
     32 F         138.5973  137.3404  163.7110 F       1  UNL1       -0.2024
     33 F         138.4814  138.2949  165.4730 F       1  UNL1       -0.2024
     34 C         140.4611  138.5113  165.7251 C.3     1  UNL1        0.1601
@<TRIPOS>BOND
     1    17    18    1
     2    18    19    1
     3    18    20   am
     4    20    21    2
     5     1    20    1
     6     1     2    1
     7     2     3    1
     8     3     4    1
     9     4     5    1
    10     5     8    1
    11     8     9   ar
    12     9    10   ar
    13    10    11   ar
    14    11    12   ar
    15    12    13   ar
    16    13    14   ar
    17    14    15   ar
    18    15    16   ar
    19     5     6    1
    20     6     7    1
    21     1    22    1
    22    22    23    1
    23    22    26    1
    24    26    27    2
    25    26    28   am
    26    28    29    1
    27    29    30    1
    28    30    31    1
    29    31    32    1
    30    31    33    1
    31    31    34    1
    32     7     2    1
    33    34    28    1
    34    16     8   ar
    35    15    11   ar
    36    23    24    1
    37    23    25    1
@<TRIPOS>MOLECULE
*****
 34 37 0 0 0
SMALL
GASTEIGER

@<TRIPOS>ATOM
      1 C         143.2993  141.0195  161.0461 C.3     1  UNL1        0.0997
      2 C         142.7117  141.0725  162.4251 C.3     1  UNL1        0.0104
      3 C         143.5647  141.4830  163.5886 C.3     1  UNL1        0.0009
      4 C         142.9770  141.5361  164.9677 C.3     1  UNL1        0.0044
      5 C         141.5363  141.1787  165.1832 C.3     1  UNL1        0.0239
      6 C         140.6832  140.7682  164.0198 C.3     1  UNL1        0.0044
      7 C         141.2709  140.7151  162.6407 C.3     1  UNL1        0.0009
      8 C         140.9485  141.2317  166.5623 C.ar    1  UNL1       -0.0032
      9 C         140.3598  139.9956  167.1747 C.ar    1  UNL1        0.0004
     10 C         139.7720  140.0486  168.5538 C.ar    1  UNL1        0.0386
     11 C         139.7731  141.3379  169.3204 C.ar    1  UNL1        0.1656
     12 N         139.2690  141.6930  170.6878 N.ar    1  UNL1       -0.2034
     13 C         139.5463  143.1487  170.9204 C.ar    1  UNL1        0.2213
     14 N         140.2217  143.6932  169.6968 N.ar    1  UNL1       -0.1409
     15 N         140.3619  142.5741  168.7079 N.ar    1  UNL1       -0.2095
     16 C         140.9496  142.5210  167.3289 C.ar    1  UNL1        0.0978
     17 C         142.2840  138.0425  158.6260 C.3     1  UNL1        0.1149
     18 N         142.2342  139.3438  159.3705 N.am    1  UNL1       -0.2760
     19 C         141.0696  140.2706  159.1840 C.3     1  UNL1        0.1149
     20 C         143.3490  139.7182  160.3015 C.2     1  UNL1        0.2271
     21 O         144.5136  138.7914  160.4881 O.2     1  UNL1       -0.2748
     22 C         143.8373  142.2676  160.4116 C.3     1  UNL1        0.1371
     23 N         145.2516  142.6929  160.6743 N.3     1  UNL1       -0.3146
     24 H         145.6974  142.0226  161.3008 H       1  UNL1        0.1192
     25 H         145.2542  143.6165  161.1071 H       1  UNL1        0.1192
     26 C         142.9611  143.0905  159.5144 C.2     1  UNL1        0.2403
     27 O         143.0505  142.9299  158.0257 O.2     1  UNL1       -0.2734
     28 N         141.9953  144.0742  160.1059 N.am    1  UNL1       -0.2730
     29 C         141.0602  144.9617  159.3392 C.3     1  UNL1        0.0993
     30 C         140.2822  145.7791  160.3274 C.3     1  UNL1        0.0898
     31 C         140.7364  145.3967  161.7048 C.3     1  UNL1        0.2835
     32 F         139.7286  146.4149  162.1491 F       1  UNL1       -0.2024
     33 F         140.9800  145.2273  163.1752 F       1  UNL1       -0.2024
     34 C         141.7952  144.3431  161.5680 C.3     1  UNL1        0.1601
@<TRIPOS>BOND
     1    17    18    1
     2    18    19    1
     3    18    20   am
     4    20    21    2
     5     1    20    1
     6     1     2    1
     7     2     3    1
     8     3     4    1
     9     4     5    1
    10     5     8    1
    11     8     9   ar
    12     9    10   ar
    13    10    11   ar
    14    11    12   ar
    15    12    13   ar
    16    13    14   ar
    17    14    15   ar
    18    15    16   ar
    19     5     6    1
    20     6     7    1
    21     1    22    1
    22    22    23    1
    23    22    26    1
    24    26    27    2
    25    26    28   am
    26    28    29    1
    27    29    30    1
    28    30    31    1
    29    31    32    1
    30    31    33    1
    31    31    34    1
    32     7     2    1
    33    34    28    1
    34    16     8   ar
    35    15    11   ar
    36    23    24    1
    37    23    25    1
@<TRIPOS>MOLECULE
*****
 34 37 0 0 0
SMALL
GASTEIGER

@<TRIPOS>ATOM
      1 C         142.4886  142.8549  161.2350 C.3     1  UNL1        0.0997
      2 C         142.4371  142.5876  162.7101 C.3     1  UNL1        0.0104
      3 C         141.6257  141.4412  163.2367 C.3     1  UNL1        0.0009
      4 C         141.5742  141.1740  164.7119 C.3     1  UNL1        0.0044
      5 C         142.3341  142.0531  165.6603 C.3     1  UNL1        0.0239
      6 C         143.1455  143.1995  165.1337 C.3     1  UNL1        0.0044
      7 C         143.1970  143.4668  163.6586 C.3     1  UNL1        0.0009
      8 C         142.2826  141.7859  167.1355 C.ar    1  UNL1       -0.0032
      9 C         143.3479  142.3384  168.0354 C.ar    1  UNL1        0.0004
     10 C         143.2964  142.0712  169.5106 C.ar    1  UNL1        0.0386
     11 C         142.1796  141.2515  170.0857 C.ar    1  UNL1        0.1656
     12 N         141.8673  140.8254  171.4896 N.ar    1  UNL1       -0.2034
     13 C         140.6090  140.0096  171.4573 C.ar    1  UNL1        0.2213
     14 N         140.1436  139.9314  170.0334 N.ar    1  UNL1       -0.1409
     15 N         141.1143  140.6990  169.1857 N.ar    1  UNL1       -0.2095
     16 C         141.1658  140.9662  167.7106 C.ar    1  UNL1        0.0978
     17 C         144.1089  140.2153  158.7537 C.3     1  UNL1        0.1149
     18 N         143.1003  140.9228  159.6093 N.am    1  UNL1       -0.2760
     19 C         141.6948  140.4058  159.6950 C.3     1  UNL1        0.1149
     20 C         143.4972  142.1473  160.3794 C.2     1  UNL1        0.2271
     21 O         144.9026  142.6643  160.2938 O.2     1  UNL1       -0.2748
     22 C         141.5315  143.8297  160.6156 C.3     1  UNL1        0.1371
     23 N         142.0507  145.0651  159.9415 N.3     1  UNL1       -0.3146
     24 H         143.0690  145.0806  159.9978 H       1  UNL1        0.1192
     25 H         141.6718  145.8905  160.4058 H       1  UNL1        0.1192
     26 C         140.0554  143.5691  160.6702 C.2     1  UNL1        0.2403
     27 O         139.3481  143.0067  159.4729 O.2     1  UNL1       -0.2734
     28 N         139.2863  143.8710  161.9222 N.am    1  UNL1       -0.2730
     29 C         137.8144  143.6641  162.1244 C.3     1  UNL1        0.0993
     30 C         137.4726  144.0981  163.5189 C.3     1  UNL1        0.0898
     31 C         138.7331  144.5732  164.1786 C.3     1  UNL1        0.2835
     32 F         137.8365  144.8238  165.3548 F       1  UNL1       -0.2024
     33 F         139.8062  145.1007  165.0843 F       1  UNL1       -0.2024
     34 C         139.8540  144.4329  163.1919 C.3     1  UNL1        0.1601
@<TRIPOS>BOND
     1    17    18    1
     2    18    19    1
     3    18    20   am
     4    20    21    2
     5     1    20    1
     6     1     2    1
     7     2     3    1
     8     3     4    1
     9     4     5    1
    10     5     8    1
    11     8     9   ar
    12     9    10   ar
    13    10    11   ar
    14    11    12   ar
    15    12    13   ar
    16    13    14   ar
    17    14    15   ar
    18    15    16   ar
    19     5     6    1
    20     6     7    1
    21     1    22    1
    22    22    23    1
    23    22    26    1
    24    26    27    2
    25    26    28   am
    26    28    29    1
    27    29    30    1
    28    30    31    1
    29    31    32    1
    30    31    33    1
    31    31    34    1
    32     7     2    1
    33    34    28    1
    34    16     8   ar
    35    15    11   ar
    36    23    24    1
    37    23    25    1
@<TRIPOS>MOLECULE
*****
 34 37 0 0 0
SMALL
GASTEIGER

@<TRIPOS>ATOM
      1 C         138.8439  142.2603  162.3508 C.3     1  UNL1        0.0997
      2 C         139.9710  142.1444  161.3679 C.3     1  UNL1        0.0104
      3 C         139.6901  142.1946  159.8954 C.3     1  UNL1        0.0009
      4 C         140.8173  142.0787  158.9125 C.3     1  UNL1        0.0044
      5 C         142.2253  141.9126  159.4021 C.3     1  UNL1        0.0239
      6 C         142.5062  141.8624  160.8747 C.3     1  UNL1        0.0044
      7 C         141.3791  141.9783  161.8576 C.3     1  UNL1        0.0009
      8 C         143.3525  141.7967  158.4192 C.ar    1  UNL1       -0.0032
      9 C         143.1918  140.9526  157.1899 C.ar    1  UNL1        0.0004
     10 C         144.3191  140.8367  156.2070 C.ar    1  UNL1        0.0386
     11 C         145.6070  141.5650  156.4536 C.ar    1  UNL1        0.1656
     12 N         146.8834  141.6404  155.6694 N.ar    1  UNL1       -0.2034
     13 C         147.8330  142.5312  156.4142 C.ar    1  UNL1        0.2213
     14 N         147.1434  143.0063  157.6587 N.ar    1  UNL1       -0.1409
     15 N         145.7676  142.4092  157.6831 N.ar    1  UNL1       -0.2095
     16 C         144.6404  142.5250  158.6659 C.ar    1  UNL1        0.0978
     17 C         138.8283  145.0086  165.2138 C.3     1  UNL1        0.1149
     18 N         139.0642  143.7148  164.4923 N.am    1  UNL1       -0.2760
     19 C         139.7562  142.5819  165.1906 C.3     1  UNL1        0.1149
     20 C         138.6080  143.5540  163.0724 C.2     1  UNL1        0.2271
     21 O         137.9160  144.6869  162.3741 O.2     1  UNL1       -0.2748
     22 C         137.9526  141.0825  162.6122 C.3     1  UNL1        0.1371
     23 N         136.6597  141.2693  163.3496 N.3     1  UNL1       -0.3146
     24 H         136.5480  142.2527  163.5962 H       1  UNL1        0.1192
     25 H         136.6681  140.7046  164.1990 H       1  UNL1        0.1192
     26 C         138.3541  139.7179  162.1362 C.2     1  UNL1        0.2403
     27 O         137.7297  139.1407  160.9005 O.2     1  UNL1       -0.2734
     28 N         139.3801  138.9303  162.8959 N.am    1  UNL1       -0.2730
     29 C         139.8790  137.5605  162.5429 C.3     1  UNL1        0.0993
     30 C         140.8946  137.1579  163.5708 C.3     1  UNL1        0.0898
     31 C         141.0233  138.2789  164.5591 C.3     1  UNL1        0.2835
     32 F         142.0302  137.3785  165.2113 F       1  UNL1       -0.2024
     33 F         141.3625  139.2117  165.6837 F       1  UNL1       -0.2024
     34 C         140.0873  139.3743  164.1420 C.3     1  UNL1        0.1601
@<TRIPOS>BOND
     1    17    18    1
     2    18    19    1
     3    18    20   am
     4    20    21    2
     5     1    20    1
     6     1     2    1
     7     2     3    1
     8     3     4    1
     9     4     5    1
    10     5     8    1
    11     8     9   ar
    12     9    10   ar
    13    10    11   ar
    14    11    12   ar
    15    12    13   ar
    16    13    14   ar
    17    14    15   ar
    18    15    16   ar
    19     5     6    1
    20     6     7    1
    21     1    22    1
    22    22    23    1
    23    22    26    1
    24    26    27    2
    25    26    28   am
    26    28    29    1
    27    29    30    1
    28    30    31    1
    29    31    32    1
    30    31    33    1
    31    31    34    1
    32     7     2    1
    33    34    28    1
    34    16     8   ar
    35    15    11   ar
    36    23    24    1
    37    23    25    1
@<TRIPOS>MOLECULE
*****
 34 37 0 0 0
SMALL
GASTEIGER

@<TRIPOS>ATOM
      1 C         142.1637  141.4933  168.1584 C.3     1  UNL1        0.0997
      2 C         141.9355  142.1557  166.8321 C.3     1  UNL1        0.0104
      3 C         140.6107  142.7903  166.5288 C.3     1  UNL1        0.0009
      4 C         140.3826  143.4527  165.2023 C.3     1  UNL1        0.0044
      5 C         141.4792  143.4804  164.1794 C.3     1  UNL1        0.0239
      6 C         142.8040  142.8457  164.4827 C.3     1  UNL1        0.0044
      7 C         143.0322  142.1833  165.8090 C.3     1  UNL1        0.0009
      8 C         141.2511  144.1427  162.8529 C.ar    1  UNL1       -0.0032
      9 C         140.2206  145.2247  162.7223 C.ar    1  UNL1        0.0004
     10 C         139.9925  145.8871  161.3958 C.ar    1  UNL1        0.0386
     11 C         140.7950  145.4673  160.2001 C.ar    1  UNL1        0.1656
     12 N         140.7919  145.9349  158.7749 N.ar    1  UNL1       -0.2034
     13 C         141.8206  145.1418  158.0247 C.ar    1  UNL1        0.2213
     14 N         142.4594  144.1840  158.9863 N.ar    1  UNL1       -0.1409
     15 N         141.8255  144.3852  160.3308 N.ar    1  UNL1       -0.2095
     16 C         142.0536  143.7229  161.6572 C.ar    1  UNL1        0.0978
     17 C         142.7304  143.8916  171.2692 C.3     1  UNL1        0.1149
     18 N         142.0486  143.1414  170.1636 N.am    1  UNL1       -0.2760
     19 C         140.5702  143.2888  169.9575 C.3     1  UNL1        0.1149
     20 C         142.8453  142.2436  169.2640 C.2     1  UNL1        0.2271
     21 O         144.3238  142.0962  169.4701 O.2     1  UNL1       -0.2748
     22 C         141.7102  140.0807  168.3792 C.3     1  UNL1        0.1371
     23 N         142.6572  139.0705  168.9561 N.3     1  UNL1       -0.3146
     24 H         143.5580  139.5134  169.1371 H       1  UNL1        0.1192
     25 H         142.7818  138.3044  168.2943 H       1  UNL1        0.1192
     26 C         140.3099  139.6782  168.0230 C.2     1  UNL1        0.2403
     27 O         139.2037  139.8474  169.0219 O.2     1  UNL1       -0.2734
     28 N         140.0155  139.1065  166.6677 N.am    1  UNL1       -0.2730
     29 C         138.6718  138.6615  166.1714 C.3     1  UNL1        0.0993
     30 C         138.8391  138.1594  164.7678 C.3     1  UNL1        0.0898
     31 C         140.2862  138.2941  164.3968 C.3     1  UNL1        0.2835
     32 F         139.8422  137.7115  163.0878 F       1  UNL1       -0.2024
     33 F         141.6405  138.3070  163.7520 F       1  UNL1       -0.2024
     34 C         141.0133  138.8794  165.5709 C.3     1  UNL1        0.1601
@<TRIPOS>BOND
     1    17    18    1
     2    18    19    1
     3    18    20   am
     4    20    21    2
     5     1    20    1
     6     1     2    1
     7     2     3    1
     8     3     4    1
     9     4     5    1
    10     5     8    1
    11     8     9   ar
    12     9    10   ar
    13    10    11   ar
    14    11    12   ar
    15    12    13   ar
    16    13    14   ar
    17    14    15   ar
    18    15    16   ar
    19     5     6    1
    20     6     7    1
    21     1    22    1
    22    22    23    1
    23    22    26    1
    24    26    27    2
    25    26    28   am
    26    28    29    1
    27    29    30    1
    28    30    31    1
    29    31    32    1
    30    31    33    1
    31    31    34    1
    32     7     2    1
    33    34    28    1
    34    16     8   ar
    35    15    11   ar
    36    23    24    1
    37    23    25    1
@<TRIPOS>MOLECULE
*****
 34 37 0 0 0
SMALL
GASTEIGER

@<TRIPOS>ATOM
      1 C         140.3323  143.5442  161.5881 C.3     1  UNL1        0.0997
      2 C         140.3520  143.2739  163.0634 C.3     1  UNL1        0.0104
      3 C         141.4329  142.4184  163.6547 C.3     1  UNL1        0.0009
      4 C         141.4526  142.1481  165.1301 C.3     1  UNL1        0.0044
      5 C         140.3914  142.7333  166.0140 C.3     1  UNL1        0.0239
      6 C         139.3104  143.5887  165.4226 C.3     1  UNL1        0.0044
      7 C         139.2907  143.8591  163.9473 C.3     1  UNL1        0.0009
      8 C         140.4110  142.4630  167.4893 C.ar    1  UNL1       -0.0032
      9 C         140.3493  143.6034  168.4616 C.ar    1  UNL1        0.0004
     10 C         140.3689  143.3331  169.9370 C.ar    1  UNL1        0.0386
     11 C         140.4503  141.9223  170.4399 C.ar    1  UNL1        0.1656
     12 N         140.4867  141.3516  171.8267 N.ar    1  UNL1       -0.2034
     13 C         140.5709  139.8584  171.7113 C.ar    1  UNL1        0.2213
     14 N         140.5866  139.5062  170.2533 N.ar    1  UNL1       -0.1409
     15 N         140.5120  140.7818  169.4675 N.ar    1  UNL1       -0.2095
     16 C         140.4924  141.0521  167.9922 C.ar    1  UNL1        0.0978
     17 C         139.4686  140.6194  159.0485 C.3     1  UNL1        0.1149
     18 N         140.2456  141.5172  159.9652 N.am    1  UNL1       -0.2760
     19 C         141.7126  141.2859  160.1757 C.3     1  UNL1        0.1149
     20 C         139.5554  142.6464  160.6713 C.2     1  UNL1        0.2271
     21 O         138.0884  142.8777  160.4608 O.2     1  UNL1       -0.2748
     22 C         141.0894  144.7124  161.0295 C.3     1  UNL1        0.1371
     23 N         142.4762  145.0101  161.5178 N.3     1  UNL1       -0.3146
     24 H         142.7432  144.3229  162.2228 H       1  UNL1        0.1192
     25 H         142.4993  145.9439  161.9274 H       1  UNL1        0.1192
     26 C         140.4600  145.5829  159.9827 C.2     1  UNL1        0.2403
     27 O         139.3777  146.5495  160.3625 O.2     1  UNL1       -0.2734
     28 N         140.9127  145.4867  158.5558 N.am    1  UNL1       -0.2730
     29 C         140.3793  146.2883  157.4056 C.3     1  UNL1        0.0993
     30 C         141.1153  145.8691  156.1676 C.3     1  UNL1        0.0898
     31 C         142.1035  144.8084  156.5527 C.3     1  UNL1        0.2835
     32 F         142.4505  144.8237  155.0935 F       1  UNL1       -0.2024
     33 F         143.1643  143.7510  156.6327 F       1  UNL1       -0.2024
     34 C         141.9784  144.5721  158.0286 C.3     1  UNL1        0.1601
@<TRIPOS>BOND
     1    17    18    1
     2    18    19    1
     3    18    20   am
     4    20    21    2
     5     1    20    1
     6     1     2    1
     7     2     3    1
     8     3     4    1
     9     4     5    1
    10     5     8    1
    11     8     9   ar
    12     9    10   ar
    13    10    11   ar
    14    11    12   ar
    15    12    13   ar
    16    13    14   ar
    17    14    15   ar
    18    15    16   ar
    19     5     6    1
    20     6     7    1
    21     1    22    1
    22    22    23    1
    23    22    26    1
    24    26    27    2
    25    26    28   am
    26    28    29    1
    27    29    30    1
    28    30    31    1
    29    31    32    1
    30    31    33    1
    31    31    34    1
    32     7     2    1
    33    34    28    1
    34    16     8   ar
    35    15    11   ar
    36    23    24    1
    37    23    25    1
@<TRIPOS>MOLECULE
*****
 34 37 0 0 0
SMALL
GASTEIGER

@<TRIPOS>ATOM
      1 C         142.2520  139.3873  159.6215 C.3     1  UNL1        0.0997
      2 C         141.6510  139.3970  160.9958 C.3     1  UNL1        0.0104
      3 C         142.1769  138.4698  162.0510 C.3     1  UNL1        0.0009
      4 C         141.5758  138.4796  163.4253 C.3     1  UNL1        0.0044
      5 C         140.4488  139.4166  163.7443 C.3     1  UNL1        0.0239
      6 C         139.9228  140.3438  162.6891 C.3     1  UNL1        0.0044
      7 C         140.5239  140.3340  161.3148 C.3     1  UNL1        0.0009
      8 C         139.8476  139.4264  165.1186 C.ar    1  UNL1       -0.0032
      9 C         138.5429  138.7310  165.3715 C.ar    1  UNL1        0.0004
     10 C         137.9417  138.7409  166.7458 C.ar    1  UNL1        0.0386
     11 C         138.6455  139.4461  167.8671 C.ar    1  UNL1        0.1656
     12 N         138.2986  139.6238  169.3156 N.ar    1  UNL1       -0.2034
     13 C         139.3890  140.4291  169.9579 C.ar    1  UNL1        0.2213
     14 N         140.4098  140.7490  168.9064 N.ar    1  UNL1       -0.1409
     15 N         139.9503  140.1415  167.6142 N.ar    1  UNL1       -0.2095
     16 C         140.5513  140.1316  166.2399 C.ar    1  UNL1        0.0978
     17 C         140.2390  137.4078  156.8324 C.3     1  UNL1        0.1149
     18 N         140.6253  138.4756  157.8125 N.am    1  UNL1       -0.2760
     19 C         139.7715  139.6996  157.9635 C.3     1  UNL1        0.1149
     20 C         141.8656  138.3195  158.6415 C.2     1  UNL1        0.2271
     21 O         142.7195  137.0955  158.4904 O.2     1  UNL1       -0.2748
     22 C         143.2395  140.4453  159.2274 C.3     1  UNL1        0.1371
     23 N         144.3365  140.1229  158.2563 N.3     1  UNL1       -0.3146
     24 H         144.2600  139.1473  157.9686 H       1  UNL1        0.1192
     25 H         145.2410  140.2761  158.7020 H       1  UNL1        0.1192
     26 C         143.1302  141.8255  159.8041 C.2     1  UNL1        0.2403
     27 O         142.3461  142.8805  159.0815 O.2     1  UNL1       -0.2734
     28 N         143.8049  142.1510  161.1038 N.am    1  UNL1       -0.2730
     29 C         143.7842  143.4797  161.7995 C.3     1  UNL1        0.0993
     30 C         144.5854  143.3547  163.0614 C.3     1  UNL1        0.0898
     31 C         145.1012  141.9488  163.1456 C.3     1  UNL1        0.2835
     32 F         145.7183  142.4194  164.4293 F       1  UNL1       -0.2024
     33 F         145.7460  140.6412  163.4982 F       1  UNL1       -0.2024
     34 C         144.6189  141.2048  161.9358 C.3     1  UNL1        0.1601
@<TRIPOS>BOND
     1    17    18    1
     2    18    19    1
     3    18    20   am
     4    20    21    2
     5     1    20    1
     6     1     2    1
     7     2     3    1
     8     3     4    1
     9     4     5    1
    10     5     8    1
    11     8     9   ar
    12     9    10   ar
    13    10    11   ar
    14    11    12   ar
    15    12    13   ar
    16    13    14   ar
    17    14    15   ar
    18    15    16   ar
    19     5     6    1
    20     6     7    1
    21     1    22    1
    22    22    23    1
    23    22    26    1
    24    26    27    2
    25    26    28   am
    26    28    29    1
    27    29    30    1
    28    30    31    1
    29    31    32    1
    30    31    33    1
    31    31    34    1
    32     7     2    1
    33    34    28    1
    34    16     8   ar
    35    15    11   ar
    36    23    24    1
    37    23    25    1
@<TRIPOS>MOLECULE
*****
 34 37 0 0 0
SMALL
GASTEIGER

@<TRIPOS>ATOM
      1 C         143.4843  141.1675  161.2134 C.3     1  UNL1        0.0997
      2 C         143.2383  141.2140  162.6924 C.3     1  UNL1        0.0104
      3 C         142.4937  140.0986  163.3642 C.3     1  UNL1        0.0009
      4 C         142.2477  140.1451  164.8432 C.3     1  UNL1        0.0044
      5 C         142.7463  141.3068  165.6503 C.3     1  UNL1        0.0239
      6 C         143.4910  142.4222  164.9785 C.3     1  UNL1        0.0044
      7 C         143.7370  142.3758  163.4995 C.3     1  UNL1        0.0009
      8 C         142.5004  141.3533  167.1293 C.ar    1  UNL1       -0.0032
      9 C         143.2884  142.2943  167.9914 C.ar    1  UNL1        0.0004
     10 C         143.0424  142.3408  169.4705 C.ar    1  UNL1        0.0386
     11 C         142.0084  141.4462  170.0872 C.ar    1  UNL1        0.1656
     12 N         141.5490  141.2714  171.5044 N.ar    1  UNL1       -0.2034
     13 C         140.4771  140.2222  171.5181 C.ar    1  UNL1        0.2213
     14 N         140.2739  139.7487  170.1093 N.ar    1  UNL1       -0.1409
     15 N         141.2203  140.5052  169.2250 N.ar    1  UNL1       -0.2095
     16 C         141.4663  140.4588  167.7461 C.ar    1  UNL1        0.0978
     17 C         141.5611  138.3970  159.1216 C.3     1  UNL1        0.1149
     18 N         141.8379  139.6559  159.8888 N.am    1  UNL1       -0.2760
     19 C         140.7454  140.6621  160.0987 C.3     1  UNL1        0.1149
     20 C         143.2074  139.9087  160.4462 C.2     1  UNL1        0.2271
     21 O         144.2999  138.9025  160.2364 O.2     1  UNL1       -0.2748
     22 C         144.0072  142.3799  160.5017 C.3     1  UNL1        0.1371
     23 N         145.3873  142.8871  160.7990 N.3     1  UNL1       -0.3146
     24 H         145.8237  142.2922  161.5034 H       1  UNL1        0.1192
     25 H         145.3299  143.8432  161.1497 H       1  UNL1        0.1192
     26 C         143.1502  143.0851  159.4927 C.2     1  UNL1        0.2403
     27 O         143.3402  142.8174  158.0291 O.2     1  UNL1       -0.2734
     28 N         142.1030  144.0583  159.9473 N.am    1  UNL1       -0.2730
     29 C         141.1760  144.8345  159.0596 C.3     1  UNL1        0.0993
     30 C         140.2991  145.6819  159.9331 C.3     1  UNL1        0.0898
     31 C         140.6842  145.4294  161.3606 C.3     1  UNL1        0.2835
     32 F         139.6026  146.4235  161.6635 F       1  UNL1       -0.2024
     33 F         140.8432  145.3847  162.8514 F       1  UNL1       -0.2024
     34 C         141.7991  144.4259  161.3694 C.3     1  UNL1        0.1601
@<TRIPOS>BOND
     1    17    18    1
     2    18    19    1
     3    18    20   am
     4    20    21    2
     5     1    20    1
     6     1     2    1
     7     2     3    1
     8     3     4    1
     9     4     5    1
    10     5     8    1
    11     8     9   ar
    12     9    10   ar
    13    10    11   ar
    14    11    12   ar
    15    12    13   ar
    16    13    14   ar
    17    14    15   ar
    18    15    16   ar
    19     5     6    1
    20     6     7    1
    21     1    22    1
    22    22    23    1
    23    22    26    1
    24    26    27    2
    25    26    28   am
    26    28    29    1
    27    29    30    1
    28    30    31    1
    29    31    32    1
    30    31    33    1
    31    31    34    1
    32     7     2    1
    33    34    28    1
    34    16     8   ar
    35    15    11   ar
    36    23    24    1
    37    23    25    1
@<TRIPOS>MOLECULE
*****
 34 37 0 0 0
SMALL
GASTEIGER

@<TRIPOS>ATOM
      1 C         141.5012  142.0428  164.3723 C.3     1  UNL1        0.0997
      2 C         141.4849  141.2220  163.1170 C.3     1  UNL1        0.0104
      3 C         140.5186  141.5515  162.0180 C.3     1  UNL1        0.0009
      4 C         140.5023  140.7306  160.7626 C.3     1  UNL1        0.0044
      5 C         141.4521  139.5804  160.6062 C.3     1  UNL1        0.0239
      6 C         142.4184  139.2509  161.7051 C.3     1  UNL1        0.0044
      7 C         142.4348  140.0717  162.9605 C.3     1  UNL1        0.0009
      8 C         141.4358  138.7595  159.3508 C.ar    1  UNL1       -0.0032
      9 C         142.6793  138.0512  158.9016 C.ar    1  UNL1        0.0004
     10 C         142.6630  137.2303  157.6462 C.ar    1  UNL1        0.0386
     11 C         141.4030  137.1179  156.8400 C.ar    1  UNL1        0.1656
     12 N         141.0866  136.3865  155.5693 N.ar    1  UNL1       -0.2034
     13 C         139.6474  136.6428  155.2331 C.ar    1  UNL1        0.2213
     14 N         139.0744  137.5326  156.2961 N.ar    1  UNL1       -0.1409
     15 N         140.1595  137.8262  157.2893 N.ar    1  UNL1       -0.2095
     16 C         140.1759  138.6470  158.5446 C.ar    1  UNL1        0.0978
     17 C         138.5978  144.7126  164.8110 C.3     1  UNL1        0.1149
     18 N         139.3200  143.3987  164.7644 N.am    1  UNL1       -0.2760
     19 C         138.5832  142.1268  165.0635 C.3     1  UNL1        0.1149
     20 C         140.7790  143.3567  164.4189 C.2     1  UNL1        0.2271
     21 O         141.5158  144.6285  164.1198 O.2     1  UNL1       -0.2748
     22 C         142.2398  141.5497  165.5812 C.3     1  UNL1        0.1371
     23 N         143.6465  142.0035  165.8374 N.3     1  UNL1       -0.3146
     24 H         143.9391  142.6393  165.0954 H       1  UNL1        0.1192
     25 H         144.2668  141.1941  165.8559 H       1  UNL1        0.1192
     26 C         141.5719  140.6030  166.5337 C.2     1  UNL1        0.2403
     27 O         141.5641  139.1308  166.2463 O.2     1  UNL1       -0.2734
     28 N         140.9116  141.1284  167.7740 N.am    1  UNL1       -0.2730
     29 C         140.2080  140.3074  168.8136 C.3     1  UNL1        0.0993
     30 C         139.7006  141.2386  169.8745 C.3     1  UNL1        0.0898
     31 C         140.0907  142.6351  169.4905 C.3     1  UNL1        0.2835
     32 F         139.3934  143.0117  170.7640 F       1  UNL1       -0.2024
     33 F         140.3350  144.1104  169.3728 F       1  UNL1       -0.2024
     34 C         140.8392  142.5671  168.1923 C.3     1  UNL1        0.1601
@<TRIPOS>BOND
     1    17    18    1
     2    18    19    1
     3    18    20   am
     4    20    21    2
     5     1    20    1
     6     1     2    1
     7     2     3    1
     8     3     4    1
     9     4     5    1
    10     5     8    1
    11     8     9   ar
    12     9    10   ar
    13    10    11   ar
    14    11    12   ar
    15    12    13   ar
    16    13    14   ar
    17    14    15   ar
    18    15    16   ar
    19     5     6    1
    20     6     7    1
    21     1    22    1
    22    22    23    1
    23    22    26    1
    24    26    27    2
    25    26    28   am
    26    28    29    1
    27    29    30    1
    28    30    31    1
    29    31    32    1
    30    31    33    1
    31    31    34    1
    32     7     2    1
    33    34    28    1
    34    16     8   ar
    35    15    11   ar
    36    23    24    1
    37    23    25    1
