@<TRIPOS>MOLECULE
*****
 30 33 0 0 0
SMALL
GASTEIGER

@<TRIPOS>ATOM
      1 O         142.8012  138.0372  161.7430 O.2     1  UNL1       -0.2665
      2 C         141.9493  138.1322  160.5120 C.ar    1  UNL1        0.2679
      3 C         142.5522  137.8815  159.1616 C.ar    1  UNL1        0.0980
      4 C         141.7004  137.9765  157.9306 C.ar    1  UNL1        0.1453
      5 C         140.2457  138.3221  158.0500 C.ar    1  UNL1        0.0561
      6 C         139.6428  138.5727  159.4004 C.ar    1  UNL1        0.0860
      7 N         140.4946  138.4778  160.6314 N.ar    1  UNL1       -0.2729
      8 C         139.8917  138.7284  161.9819 C.ar    1  UNL1        0.0671
      9 C         139.6438  140.1340  162.4434 C.ar    1  UNL1        0.0207
     10 C         139.0409  140.3847  163.7938 C.ar    1  UNL1        0.0384
     11 C         138.6858  139.2298  164.6827 C.ar    1  UNL1        0.1387
     12 C         138.9337  137.8242  164.2212 C.ar    1  UNL1        0.0384
     13 C         139.5366  137.5736  162.8708 C.ar    1  UNL1        0.0207
     14 O         138.0829  139.4805  166.0331 O.3     1  UNL1       -0.4740
     15 C         138.9440  139.4289  167.2602 C.3     1  UNL1        0.2226
     16 C         140.1244  140.3456  167.3873 C.3     1  UNL1        0.1200
     17 N         140.1263  141.4262  168.4277 N.3     1  UNL1       -0.2696
     18 C         139.6121  141.2997  169.8312 C.3     1  UNL1        0.0722
     19 C         139.8108  142.6183  170.5181 C.3     1  UNL1        0.0188
     20 C         140.4476  143.5597  169.5392 C.3     1  UNL1        0.0188
     21 C         140.6426  142.8229  168.2473 C.3     1  UNL1        0.0722
     22 O         142.3033  137.7258  156.5801 O.3     1  UNL1       -0.4704
     23 C         143.3742  136.6881  156.4178 C.3     1  UNL1        0.2320
     24 C         143.0028  135.2404  156.2919 C.ar    1  UNL1        0.0220
     25 C         141.7989  134.8418  155.4908 C.ar    1  UNL1       -0.0006
     26 C         141.4275  133.3939  155.3649 C.ar    1  UNL1        0.0007
     27 C         142.2599  132.3447  156.0402 C.ar    1  UNL1        0.0114
     28 C         143.4638  132.7432  156.8413 C.ar    1  UNL1        0.0575
     29 CL        144.2963  131.6940  157.5166 Cl      1  UNL1       -0.0823
     30 C         143.8353  134.1910  156.9672 C.ar    1  UNL1        0.0107
@<TRIPOS>BOND
     1     1     2    2
     2     2     3   ar
     3     3     4   ar
     4     4    22    1
     5    22    23    1
     6    23    24    1
     7    24    25   ar
     8    25    26   ar
     9    26    27   ar
    10    27    28   ar
    11    28    29    1
    12    28    30   ar
    13     4     5   ar
    14     5     6   ar
    15     6     7   ar
    16     7     8    1
    17     8     9   ar
    18     9    10   ar
    19    10    11   ar
    20    11    14    1
    21    14    15    1
    22    15    16    1
    23    16    17    1
    24    17    18    1
    25    18    19    1
    26    19    20    1
    27    20    21    1
    28    11    12   ar
    29    12    13   ar
    30     7     2   ar
    31    13     8   ar
    32    30    24   ar
    33    21    17    1
@<TRIPOS>MOLECULE
*****
 30 33 0 0 0
SMALL
GASTEIGER

@<TRIPOS>ATOM
      1 O         140.9699  136.8781  162.9774 O.2     1  UNL1       -0.2665
      2 C         140.0358  138.0224  163.2384 C.ar    1  UNL1        0.2679
      3 C         139.3785  138.1631  164.5794 C.ar    1  UNL1        0.0980
      4 C         138.4444  139.3073  164.8404 C.ar    1  UNL1        0.1453
      5 C         138.1676  140.3109  163.7606 C.ar    1  UNL1        0.0561
      6 C         138.8249  140.1702  162.4196 C.ar    1  UNL1        0.0860
      7 N         139.7590  139.0260  162.1586 N.ar    1  UNL1       -0.2729
      8 C         140.4163  138.8853  160.8176 C.ar    1  UNL1        0.0671
      9 C         139.5896  138.5684  159.6067 C.ar    1  UNL1        0.0207
     10 C         140.2468  138.4277  158.2657 C.ar    1  UNL1        0.0384
     11 C         141.7308  138.6040  158.1356 C.ar    1  UNL1        0.1387
     12 C         142.5575  138.9209  159.3464 C.ar    1  UNL1        0.0384
     13 C         141.9002  139.0616  160.6874 C.ar    1  UNL1        0.0207
     14 O         142.3880  138.4633  156.7946 O.3     1  UNL1       -0.4740
     15 C         142.9238  137.1321  156.3579 C.3     1  UNL1        0.2226
     16 C         141.9839  136.0662  155.8780 C.3     1  UNL1        0.1200
     17 N         142.2944  134.6213  156.1346 N.3     1  UNL1       -0.2696
     18 C         143.3262  134.0973  157.0891 C.3     1  UNL1        0.0722
     19 C         143.2972  132.5989  157.0263 C.3     1  UNL1        0.0188
     20 C         142.2475  132.1968  156.0330 C.3     1  UNL1        0.0188
     21 C         141.6278  133.4467  155.4820 C.3     1  UNL1        0.0722
     22 O         137.7871  139.4480  166.1815 O.3     1  UNL1       -0.4704
     23 C         138.5288  139.0560  167.4250 C.3     1  UNL1        0.2320
     24 C         139.4047  140.0544  168.1220 C.ar    1  UNL1        0.0220
     25 C         139.1056  140.4568  169.5357 C.ar    1  UNL1       -0.0006
     26 C         139.9817  141.4552  170.2327 C.ar    1  UNL1        0.0007
     27 C         141.1568  142.0512  169.5159 C.ar    1  UNL1        0.0114
     28 C         141.4560  141.6488  168.1022 C.ar    1  UNL1        0.0575
     29 CL        142.6311  142.2448  167.3855 Cl      1  UNL1       -0.0823
     30 C         140.5800  140.6504  167.4052 C.ar    1  UNL1        0.0107
@<TRIPOS>BOND
     1     1     2    2
     2     2     3   ar
     3     3     4   ar
     4     4    22    1
     5    22    23    1
     6    23    24    1
     7    24    25   ar
     8    25    26   ar
     9    26    27   ar
    10    27    28   ar
    11    28    29    1
    12    28    30   ar
    13     4     5   ar
    14     5     6   ar
    15     6     7   ar
    16     7     8    1
    17     8     9   ar
    18     9    10   ar
    19    10    11   ar
    20    11    14    1
    21    14    15    1
    22    15    16    1
    23    16    17    1
    24    17    18    1
    25    18    19    1
    26    19    20    1
    27    20    21    1
    28    11    12   ar
    29    12    13   ar
    30     7     2   ar
    31    13     8   ar
    32    30    24   ar
    33    21    17    1
@<TRIPOS>MOLECULE
*****
 30 33 0 0 0
SMALL
GASTEIGER

@<TRIPOS>ATOM
      1 O         142.9905  137.9282  162.0527 O.2     1  UNL1       -0.2665
      2 C         142.2434  138.0629  160.7590 C.ar    1  UNL1        0.2679
      3 C         142.9366  137.7782  159.4596 C.ar    1  UNL1        0.0980
      4 C         142.1896  137.9129  158.1658 C.ar    1  UNL1        0.1453
      5 C         140.7494  138.3323  158.1714 C.ar    1  UNL1        0.0561
      6 C         140.0563  138.6170  159.4708 C.ar    1  UNL1        0.0860
      7 N         140.8033  138.4822  160.7646 N.ar    1  UNL1       -0.2729
      8 C         140.1101  138.7670  162.0640 C.ar    1  UNL1        0.0671
      9 C         139.5011  137.6444  162.8509 C.ar    1  UNL1        0.0207
     10 C         138.8080  137.9291  164.1503 C.ar    1  UNL1        0.0384
     11 C         138.7237  139.3363  164.6629 C.ar    1  UNL1        0.1387
     12 C         139.3327  140.4588  163.8760 C.ar    1  UNL1        0.0384
     13 C         140.0259  140.1741  162.5766 C.ar    1  UNL1        0.0207
     14 O         138.0306  139.6210  165.9622 O.3     1  UNL1       -0.4740
     15 C         138.6852  139.2475  167.2591 C.3     1  UNL1        0.2226
     16 C         139.5933  140.2219  167.9488 C.3     1  UNL1        0.1200
     17 N         140.7544  140.8178  167.2093 N.3     1  UNL1       -0.2696
     18 C         141.9914  140.0886  166.7755 C.3     1  UNL1        0.0722
     19 C         142.8838  141.0677  166.0719 C.3     1  UNL1        0.0188
     20 C         142.1984  142.4019  166.0709 C.3     1  UNL1        0.0188
     21 C         140.8824  142.2475  166.7738 C.3     1  UNL1        0.0722
     22 O         142.8828  137.6282  156.8663 O.3     1  UNL1       -0.4704
     23 C         142.2786  136.6631  155.8897 C.3     1  UNL1        0.2320
     24 C         142.4254  135.1862  156.1065 C.ar    1  UNL1        0.0220
     25 C         143.4400  134.6685  157.0824 C.ar    1  UNL1       -0.0006
     26 C         143.5867  133.1915  157.2991 C.ar    1  UNL1        0.0007
     27 C         142.7188  132.2322  156.5399 C.ar    1  UNL1        0.0114
     28 C         141.7042  132.7499  155.5639 C.ar    1  UNL1        0.0575
     29 CL        140.8363  131.7906  154.8047 Cl      1  UNL1       -0.0823
     30 C         141.5575  134.2268  155.3472 C.ar    1  UNL1        0.0107
@<TRIPOS>BOND
     1     1     2    2
     2     2     3   ar
     3     3     4   ar
     4     4    22    1
     5    22    23    1
     6    23    24    1
     7    24    25   ar
     8    25    26   ar
     9    26    27   ar
    10    27    28   ar
    11    28    29    1
    12    28    30   ar
    13     4     5   ar
    14     5     6   ar
    15     6     7   ar
    16     7     8    1
    17     8     9   ar
    18     9    10   ar
    19    10    11   ar
    20    11    14    1
    21    14    15    1
    22    15    16    1
    23    16    17    1
    24    17    18    1
    25    18    19    1
    26    19    20    1
    27    20    21    1
    28    11    12   ar
    29    12    13   ar
    30     7     2   ar
    31    13     8   ar
    32    30    24   ar
    33    21    17    1
@<TRIPOS>MOLECULE
*****
 30 33 0 0 0
SMALL
GASTEIGER

@<TRIPOS>ATOM
      1 O         143.0148  142.5086  161.8678 O.2     1  UNL1       -0.2665
      2 C         141.9628  142.8050  162.8952 C.ar    1  UNL1        0.2679
      3 C         142.1869  142.4261  164.3291 C.ar    1  UNL1        0.0980
      4 C         141.1349  142.7224  165.3564 C.ar    1  UNL1        0.1453
      5 C         139.8588  143.3977  164.9498 C.ar    1  UNL1        0.0561
      6 C         139.6346  143.7767  163.5159 C.ar    1  UNL1        0.0860
      7 N         140.6867  143.4803  162.4886 N.ar    1  UNL1       -0.2729
      8 C         140.4625  143.8592  161.0546 C.ar    1  UNL1        0.0671
      9 C         140.6356  145.2843  160.6196 C.ar    1  UNL1        0.0207
     10 C         140.4115  145.6633  159.1858 C.ar    1  UNL1        0.0384
     11 C         140.0141  144.6172  158.1868 C.ar    1  UNL1        0.1387
     12 C         139.8410  143.1921  158.6218 C.ar    1  UNL1        0.0384
     13 C         140.0652  142.8132  160.0557 C.ar    1  UNL1        0.0207
     14 O         139.7900  144.9962  156.7529 O.3     1  UNL1       -0.4740
     15 C         139.9765  146.4187  156.3151 C.3     1  UNL1        0.2226
     16 C         138.8047  147.2085  155.8121 C.3     1  UNL1        0.1200
     17 N         138.9912  148.6311  155.3747 N.3     1  UNL1       -0.2696
     18 C         139.8324  149.0964  154.2232 C.3     1  UNL1        0.0722
     19 C         139.7303  150.5911  154.1489 C.3     1  UNL1        0.0188
     20 C         138.8260  151.0496  155.2543 C.3     1  UNL1        0.0188
     21 C         138.3692  149.8382  156.0119 C.3     1  UNL1        0.0722
     22 O         141.3591  142.3435  166.7904 O.3     1  UNL1       -0.4704
     23 C         141.4600  140.8977  167.1771 C.3     1  UNL1        0.2320
     24 C         140.6391  139.8696  166.4566 C.ar    1  UNL1        0.0220
     25 C         139.1630  139.7782  166.7072 C.ar    1  UNL1       -0.0006
     26 C         138.3422  138.7501  165.9867 C.ar    1  UNL1        0.0007
     27 C         138.9974  137.8133  165.0155 C.ar    1  UNL1        0.0114
     28 C         140.4735  137.9047  164.7649 C.ar    1  UNL1        0.0575
     29 CL        141.1287  136.9680  163.7937 Cl      1  UNL1       -0.0823
     30 C         141.2943  138.9328  165.4854 C.ar    1  UNL1        0.0107
@<TRIPOS>BOND
     1     1     2    2
     2     2     3   ar
     3     3     4   ar
     4     4    22    1
     5    22    23    1
     6    23    24    1
     7    24    25   ar
     8    25    26   ar
     9    26    27   ar
    10    27    28   ar
    11    28    29    1
    12    28    30   ar
    13     4     5   ar
    14     5     6   ar
    15     6     7   ar
    16     7     8    1
    17     8     9   ar
    18     9    10   ar
    19    10    11   ar
    20    11    14    1
    21    14    15    1
    22    15    16    1
    23    16    17    1
    24    17    18    1
    25    18    19    1
    26    19    20    1
    27    20    21    1
    28    11    12   ar
    29    12    13   ar
    30     7     2   ar
    31    13     8   ar
    32    30    24   ar
    33    21    17    1
@<TRIPOS>MOLECULE
*****
 30 33 0 0 0
SMALL
GASTEIGER

@<TRIPOS>ATOM
      1 O         142.2171  137.7409  162.5444 O.2     1  UNL1       -0.2665
      2 C         141.2457  138.2238  161.5084 C.ar    1  UNL1        0.2679
      3 C         141.5927  138.1277  160.0523 C.ar    1  UNL1        0.0980
      4 C         140.6213  138.6107  159.0164 C.ar    1  UNL1        0.1453
      5 C         139.3030  139.1898  159.4365 C.ar    1  UNL1        0.0561
      6 C         138.9560  139.2859  160.8927 C.ar    1  UNL1        0.0860
      7 N         139.9274  138.8029  161.9286 N.ar    1  UNL1       -0.2729
      8 C         139.5804  138.8990  163.3848 C.ar    1  UNL1        0.0671
      9 C         138.9784  137.7209  164.0917 C.ar    1  UNL1        0.0207
     10 C         138.6314  137.8170  165.5478 C.ar    1  UNL1        0.0384
     11 C         138.8863  139.0912  166.2971 C.ar    1  UNL1        0.1387
     12 C         139.4883  140.2694  165.5902 C.ar    1  UNL1        0.0384
     13 C         139.8353  140.1732  164.1340 C.ar    1  UNL1        0.0207
     14 O         138.5393  139.1873  167.7532 O.3     1  UNL1       -0.4740
     15 C         139.2850  140.1392  168.6407 C.3     1  UNL1        0.2226
     16 C         140.7333  139.8993  168.9488 C.3     1  UNL1        0.1200
     17 N         141.6048  141.0376  169.3900 N.3     1  UNL1       -0.2696
     18 C         143.0938  140.9910  169.5665 C.3     1  UNL1        0.0722
     19 C         143.5496  142.3470  170.0178 C.3     1  UNL1        0.0188
     20 C         142.3425  143.2316  170.1201 C.3     1  UNL1        0.0188
     21 C         141.1406  142.4223  169.7321 C.3     1  UNL1        0.0722
     22 O         140.9683  138.5146  157.5602 O.3     1  UNL1       -0.4704
     23 C         142.2558  137.8717  157.1369 C.3     1  UNL1        0.2320
     24 C         142.2742  136.4292  156.7261 C.ar    1  UNL1        0.0220
     25 C         141.3270  135.9373  155.6721 C.ar    1  UNL1       -0.0006
     26 C         141.3455  134.4947  155.2613 C.ar    1  UNL1        0.0007
     27 C         142.3111  133.5441  155.9046 C.ar    1  UNL1        0.0114
     28 C         143.2583  134.0359  156.9585 C.ar    1  UNL1        0.0575
     29 CL        144.2239  133.0852  157.6018 Cl      1  UNL1       -0.0823
     30 C         143.2399  135.4784  157.3693 C.ar    1  UNL1        0.0107
@<TRIPOS>BOND
     1     1     2    2
     2     2     3   ar
     3     3     4   ar
     4     4    22    1
     5    22    23    1
     6    23    24    1
     7    24    25   ar
     8    25    26   ar
     9    26    27   ar
    10    27    28   ar
    11    28    29    1
    12    28    30   ar
    13     4     5   ar
    14     5     6   ar
    15     6     7   ar
    16     7     8    1
    17     8     9   ar
    18     9    10   ar
    19    10    11   ar
    20    11    14    1
    21    14    15    1
    22    15    16    1
    23    16    17    1
    24    17    18    1
    25    18    19    1
    26    19    20    1
    27    20    21    1
    28    11    12   ar
    29    12    13   ar
    30     7     2   ar
    31    13     8   ar
    32    30    24   ar
    33    21    17    1
@<TRIPOS>MOLECULE
*****
 30 33 0 0 0
SMALL
GASTEIGER

@<TRIPOS>ATOM
      1 O         138.3194  140.1123  159.2124 O.2     1  UNL1       -0.2665
      2 C         139.0802  141.2353  159.8527 C.ar    1  UNL1        0.2679
      3 C         138.3468  142.3010  160.6119 C.ar    1  UNL1        0.0980
      4 C         139.1076  143.4240  161.2523 C.ar    1  UNL1        0.1453
      5 C         140.6018  143.4813  161.1335 C.ar    1  UNL1        0.0561
      6 C         141.3351  142.4156  160.3743 C.ar    1  UNL1        0.0860
      7 N         140.5743  141.2926  159.7339 N.ar    1  UNL1       -0.2729
      8 C         141.3078  140.2268  158.9747 C.ar    1  UNL1        0.0671
      9 C         141.4713  140.3428  157.4881 C.ar    1  UNL1        0.0207
     10 C         142.2047  139.2772  156.7289 C.ar    1  UNL1        0.0384
     11 C         142.7746  138.0954  157.4562 C.ar    1  UNL1        0.1387
     12 C         142.6110  137.9795  158.9427 C.ar    1  UNL1        0.0384
     13 C         141.8776  139.0452  159.7020 C.ar    1  UNL1        0.0207
     14 O         143.5079  137.0298  156.6970 O.3     1  UNL1       -0.4740
     15 C         143.1011  135.5930  156.8389 C.3     1  UNL1        0.2226
     16 C         143.6552  134.5606  155.9024 C.3     1  UNL1        0.1200
     17 N         144.1293  133.2413  156.4360 N.3     1  UNL1       -0.2696
     18 C         144.1468  131.9420  155.6866 C.3     1  UNL1        0.0722
     19 C         144.6975  130.8874  156.6002 C.3     1  UNL1        0.0188
     20 C         145.0202  131.5349  157.9142 C.3     1  UNL1        0.0188
     21 C         144.6691  132.9897  157.8127 C.3     1  UNL1        0.0722
     22 O         138.3742  144.4897  162.0116 O.3     1  UNL1       -0.4704
     23 C         137.7146  144.1607  163.3179 C.3     1  UNL1        0.2320
     24 C         138.4069  143.2667  164.3035 C.ar    1  UNL1        0.0220
     25 C         139.5357  143.7995  165.1354 C.ar    1  UNL1       -0.0006
     26 C         140.2280  142.9054  166.1210 C.ar    1  UNL1        0.0007
     27 C         139.7916  141.4786  166.2747 C.ar    1  UNL1        0.0114
     28 C         138.6628  140.9458  165.4428 C.ar    1  UNL1        0.0575
     29 CL        138.2264  139.5190  165.5965 Cl      1  UNL1       -0.0823
     30 C         137.9705  141.8398  164.4572 C.ar    1  UNL1        0.0107
@<TRIPOS>BOND
     1     1     2    2
     2     2     3   ar
     3     3     4   ar
     4     4    22    1
     5    22    23    1
     6    23    24    1
     7    24    25   ar
     8    25    26   ar
     9    26    27   ar
    10    27    28   ar
    11    28    29    1
    12    28    30   ar
    13     4     5   ar
    14     5     6   ar
    15     6     7   ar
    16     7     8    1
    17     8     9   ar
    18     9    10   ar
    19    10    11   ar
    20    11    14    1
    21    14    15    1
    22    15    16    1
    23    16    17    1
    24    17    18    1
    25    18    19    1
    26    19    20    1
    27    20    21    1
    28    11    12   ar
    29    12    13   ar
    30     7     2   ar
    31    13     8   ar
    32    30    24   ar
    33    21    17    1
@<TRIPOS>MOLECULE
*****
 30 33 0 0 0
SMALL
GASTEIGER

@<TRIPOS>ATOM
      1 O         142.3557  138.5761  160.3655 O.2     1  UNL1       -0.2665
      2 C         141.7543  138.1365  159.0635 C.ar    1  UNL1        0.2679
      3 C         142.5881  137.3859  158.0678 C.ar    1  UNL1        0.0980
      4 C         141.9867  136.9464  156.7658 C.ar    1  UNL1        0.1453
      5 C         140.5516  137.2573  156.4596 C.ar    1  UNL1        0.0561
      6 C         139.7179  138.0078  157.4553 C.ar    1  UNL1        0.0860
      7 N         140.3193  138.4474  158.7573 N.ar    1  UNL1       -0.2729
      8 C         139.4855  139.1980  159.7531 C.ar    1  UNL1        0.0671
      9 C         138.8994  138.4806  160.9328 C.ar    1  UNL1        0.0207
     10 C         138.0656  139.2311  161.9286 C.ar    1  UNL1        0.0384
     11 C         137.8179  140.6991  161.7446 C.ar    1  UNL1        0.1387
     12 C         138.4039  141.4165  160.5648 C.ar    1  UNL1        0.0384
     13 C         139.2378  140.6659  159.5690 C.ar    1  UNL1        0.0207
     14 O         136.9841  141.4496  162.7403 O.3     1  UNL1       -0.4740
     15 C         137.6435  142.1732  163.8768 C.3     1  UNL1        0.2226
     16 C         137.8001  143.6641  163.8265 C.3     1  UNL1        0.1200
     17 N         139.1102  144.2671  163.4140 N.3     1  UNL1       -0.2696
     18 C         139.5245  144.6009  162.0115 C.3     1  UNL1        0.0722
     19 C         140.9064  145.1822  162.0624 C.3     1  UNL1        0.0188
     20 C         141.3461  145.2078  163.4962 C.3     1  UNL1        0.0188
     21 C         140.2360  144.6422  164.3316 C.3     1  UNL1        0.0722
     22 O         142.8205  136.1958  155.7700 O.3     1  UNL1       -0.4704
     23 C         142.5194  134.7567  155.4729 C.3     1  UNL1        0.2320
     24 C         143.3877  133.6753  156.0443 C.ar    1  UNL1        0.0220
     25 C         143.9775  133.8325  157.4145 C.ar    1  UNL1       -0.0006
     26 C         144.8459  132.7510  157.9859 C.ar    1  UNL1        0.0007
     27 C         145.1245  131.5124  157.1870 C.ar    1  UNL1        0.0114
     28 C         144.5347  131.3552  155.8168 C.ar    1  UNL1        0.0575
     29 CL        144.8133  130.1166  155.0180 Cl      1  UNL1       -0.0823
     30 C         143.6664  132.4366  155.2454 C.ar    1  UNL1        0.0107
@<TRIPOS>BOND
     1     1     2    2
     2     2     3   ar
     3     3     4   ar
     4     4    22    1
     5    22    23    1
     6    23    24    1
     7    24    25   ar
     8    25    26   ar
     9    26    27   ar
    10    27    28   ar
    11    28    29    1
    12    28    30   ar
    13     4     5   ar
    14     5     6   ar
    15     6     7   ar
    16     7     8    1
    17     8     9   ar
    18     9    10   ar
    19    10    11   ar
    20    11    14    1
    21    14    15    1
    22    15    16    1
    23    16    17    1
    24    17    18    1
    25    18    19    1
    26    19    20    1
    27    20    21    1
    28    11    12   ar
    29    12    13   ar
    30     7     2   ar
    31    13     8   ar
    32    30    24   ar
    33    21    17    1
@<TRIPOS>MOLECULE
*****
 30 33 0 0 0
SMALL
GASTEIGER

@<TRIPOS>ATOM
      1 O         142.4378  138.6784  160.2429 O.2     1  UNL1       -0.2665
      2 C         141.8401  138.1750  158.9625 C.ar    1  UNL1        0.2679
      3 C         142.6884  137.4143  157.9870 C.ar    1  UNL1        0.0980
      4 C         142.0907  136.9109  156.7066 C.ar    1  UNL1        0.1453
      5 C         140.6448  137.1683  156.4018 C.ar    1  UNL1        0.0561
      6 C         139.7965  137.9290  157.3773 C.ar    1  UNL1        0.0860
      7 N         140.3942  138.4324  158.6577 N.ar    1  UNL1       -0.2729
      8 C         139.5458  139.1932  159.6332 C.ar    1  UNL1        0.0671
      9 C         139.3048  140.6601  159.4328 C.ar    1  UNL1        0.0207
     10 C         138.4565  141.4209  160.4082 C.ar    1  UNL1        0.0384
     11 C         137.8492  140.7148  161.5842 C.ar    1  UNL1        0.1387
     12 C         138.0903  139.2479  161.7846 C.ar    1  UNL1        0.0384
     13 C         138.9386  138.4871  160.8091 C.ar    1  UNL1        0.0207
     14 O         137.0009  141.4756  162.5596 O.3     1  UNL1       -0.4740
     15 C         137.6162  142.5424  163.4160 C.3     1  UNL1        0.2226
     16 C         138.2084  142.1866  164.7474 C.3     1  UNL1        0.1200
     17 N         138.8296  140.8373  164.9555 N.3     1  UNL1       -0.2696
     18 C         138.1601  139.6438  165.5700 C.3     1  UNL1        0.0722
     19 C         139.1461  138.5133  165.5800 C.3     1  UNL1        0.0188
     20 C         140.4248  139.0082  164.9717 C.3     1  UNL1        0.0188
     21 C         140.2292  140.4444  164.5858 C.3     1  UNL1        0.0722
     22 O         142.9390  136.1501  155.7311 O.3     1  UNL1       -0.4704
     23 C         143.7703  134.9939  156.2025 C.3     1  UNL1        0.2320
     24 C         143.3491  133.5893  155.8867 C.ar    1  UNL1        0.0220
     25 C         141.9157  133.2917  155.5596 C.ar    1  UNL1       -0.0006
     26 C         141.4946  131.8871  155.2438 C.ar    1  UNL1        0.0007
     27 C         142.5067  130.7801  155.2551 C.ar    1  UNL1        0.0114
     28 C         143.9400  131.0777  155.5821 C.ar    1  UNL1        0.0575
     29 CL        144.9522  129.9708  155.5934 Cl      1  UNL1       -0.0823
     30 C         144.3613  132.4823  155.8979 C.ar    1  UNL1        0.0107
@<TRIPOS>BOND
     1     1     2    2
     2     2     3   ar
     3     3     4   ar
     4     4    22    1
     5    22    23    1
     6    23    24    1
     7    24    25   ar
     8    25    26   ar
     9    26    27   ar
    10    27    28   ar
    11    28    29    1
    12    28    30   ar
    13     4     5   ar
    14     5     6   ar
    15     6     7   ar
    16     7     8    1
    17     8     9   ar
    18     9    10   ar
    19    10    11   ar
    20    11    14    1
    21    14    15    1
    22    15    16    1
    23    16    17    1
    24    17    18    1
    25    18    19    1
    26    19    20    1
    27    20    21    1
    28    11    12   ar
    29    12    13   ar
    30     7     2   ar
    31    13     8   ar
    32    30    24   ar
    33    21    17    1
@<TRIPOS>MOLECULE
*****
 30 33 0 0 0
SMALL
GASTEIGER

@<TRIPOS>ATOM
      1 O         138.8429  144.3722  161.4725 O.2     1  UNL1       -0.2665
      2 C         140.2948  144.0080  161.3764 C.ar    1  UNL1        0.2679
      3 C         141.2945  144.6655  162.2810 C.ar    1  UNL1        0.0980
      4 C         142.7464  144.3013  162.1850 C.ar    1  UNL1        0.1453
      5 C         143.1987  143.2795  161.1844 C.ar    1  UNL1        0.0561
      6 C         142.1991  142.6219  160.2798 C.ar    1  UNL1        0.0860
      7 N         140.7472  142.9862  160.3758 N.ar    1  UNL1       -0.2729
      8 C         139.7475  142.3285  159.4712 C.ar    1  UNL1        0.0671
      9 C         139.1428  141.0103  159.8541 C.ar    1  UNL1        0.0207
     10 C         138.1432  140.3527  158.9495 C.ar    1  UNL1        0.0384
     11 C         137.7483  141.0133  157.6619 C.ar    1  UNL1        0.1387
     12 C         138.3530  142.3315  157.2790 C.ar    1  UNL1        0.0384
     13 C         139.3526  142.9891  158.1837 C.ar    1  UNL1        0.0207
     14 O         136.7487  140.3556  156.7574 O.3     1  UNL1       -0.4740
     15 C         135.7505  141.1897  156.0104 C.3     1  UNL1        0.2226
     16 C         134.6767  140.5270  155.1994 C.3     1  UNL1        0.1200
     17 N         133.3842  140.1294  155.8484 N.3     1  UNL1       -0.2696
     18 C         133.1103  138.8288  156.5439 C.3     1  UNL1        0.0722
     19 C         131.6954  138.8581  157.0412 C.3     1  UNL1        0.0188
     20 C         131.0948  140.1767  156.6530 C.3     1  UNL1        0.0188
     21 C         132.1386  140.9623  155.9159 C.3     1  UNL1        0.0722
     22 O         143.7460  144.9589  163.0896 O.3     1  UNL1       -0.4704
     23 C         144.0830  144.3375  164.4126 C.3     1  UNL1        0.2320
     24 C         144.1732  142.8456  164.5392 C.ar    1  UNL1        0.0220
     25 C         145.3213  142.1082  163.9162 C.ar    1  UNL1       -0.0006
     26 C         145.4115  140.6162  164.0429 C.ar    1  UNL1        0.0007
     27 C         144.3537  139.8618  164.7925 C.ar    1  UNL1        0.0114
     28 C         143.2057  140.5993  165.4155 C.ar    1  UNL1        0.0575
     29 CL        142.1479  139.8449  166.1651 Cl      1  UNL1       -0.0823
     30 C         143.1154  142.0912  165.2889 C.ar    1  UNL1        0.0107
@<TRIPOS>BOND
     1     1     2    2
     2     2     3   ar
     3     3     4   ar
     4     4    22    1
     5    22    23    1
     6    23    24    1
     7    24    25   ar
     8    25    26   ar
     9    26    27   ar
    10    27    28   ar
    11    28    29    1
    12    28    30   ar
    13     4     5   ar
    14     5     6   ar
    15     6     7   ar
    16     7     8    1
    17     8     9   ar
    18     9    10   ar
    19    10    11   ar
    20    11    14    1
    21    14    15    1
    22    15    16    1
    23    16    17    1
    24    17    18    1
    25    18    19    1
    26    19    20    1
    27    20    21    1
    28    11    12   ar
    29    12    13   ar
    30     7     2   ar
    31    13     8   ar
    32    30    24   ar
    33    21    17    1
