@<TRIPOS>MOLECULE
*****
 41 47 0 0 0
SMALL
GASTEIGER

@<TRIPOS>ATOM
      1 C         140.0909  141.8523  161.0533 C.3     1  UNL1        0.1707
      2 N         140.8113  141.2236  159.8975 N.3     1  UNL1       -0.2797
      3 C         141.1042  139.7526  159.9070 C.3     1  UNL1        0.1167
      4 C         140.6768  138.9101  161.0722 C.3     1  UNL1        0.0511
      5 C         139.9564  139.5388  162.2279 C.2     1  UNL1       -0.0037
      6 C         139.6635  141.0099  162.2185 C.2     1  UNL1        0.0800
      7 N         138.9427  141.3471  163.4900 N.2     1  UNL1       -0.2519
      8 C         138.7902  140.0844  164.2853 C.2     1  UNL1        0.0627
      9 C         138.1618  139.8079  165.6189 C.3     1  UNL1        0.0717
     10 C         138.1599  138.4139  166.1725 C.2     1  UNL1       -0.0198
     11 C         138.7864  137.2963  165.3925 C.2     1  UNL1       -0.0042
     12 C         139.4148  137.5727  164.0589 C.2     1  UNL1        0.0006
     13 C         139.4167  138.9668  163.5053 C.2     1  UNL1        0.0111
     14 H         141.7083  141.7020  159.8143 H       1  UNL1        0.1246
     15 C         139.4404  142.8999  161.9075 C.ar    1  UNL1        0.2494
     16 N         138.0925  143.5151  161.6748 N.ar    1  UNL1       -0.1082
     17 N         137.8428  144.5116  162.7679 N.ar    1  UNL1       -0.0928
     18 C         139.0366  144.5121  163.6761 C.ar    1  UNL1        0.3052
     19 N         139.2121  145.3599  164.9010 N.pl3   1  UNL1       -0.3115
     20 O         140.0240  143.5160  163.1443 O.2     1  UNL1       -0.4068
     21 H         138.5034  145.9879  165.1708 H       1  UNL1        0.1467
     22 H         140.0359  145.2884  165.4353 H       1  UNL1        0.1467
     23 C         139.7267  145.2744  157.0486 C.3     1  UNL1        0.1537
     24 N         140.1250  144.6315  158.3441 N.ar    1  UNL1       -0.2476
     25 C         139.6382  143.3092  158.8584 C.ar    1  UNL1        0.0945
     26 C         140.2924  143.0585  160.1848 C.ar    1  UNL1        0.0439
     27 C         141.1835  144.2259  160.4901 C.ar    1  UNL1        0.1194
     28 N         141.0800  145.1981  159.3525 N.ar    1  UNL1       -0.1679
     29 C         141.8246  139.1238  158.7512 C.ar    1  UNL1        0.1319
     30 N         141.6978  137.6978  158.3037 N.ar    1  UNL1       -0.2282
     31 C         142.5931  137.5034  157.1159 C.ar    1  UNL1        0.1171
     32 C         143.2732  138.8093  156.8294 C.ar    1  UNL1        0.0942
     33 N         142.7983  139.8108  157.8401 N.ar    1  UNL1       -0.3385
     34 H         143.0767  140.7534  157.8957 H       1  UNL1        0.1672
     35 C         142.7761  136.2271  156.3493 C.ar    1  UNL1        0.1006
     36 C         142.4284  136.1716  154.8912 C.ar    1  UNL1        0.0230
     37 C         142.6114  134.8954  154.1246 C.ar    1  UNL1        0.0328
     38 C         143.1421  133.6747  154.8160 C.ar    1  UNL1        0.1592
     39 F         143.3251  132.3984  154.0494 F       1  UNL1       -0.2025
     40 C         143.4898  133.7302  156.2741 C.ar    1  UNL1        0.1284
     41 N         143.3068  135.0064  157.0408 N.ar    1  UNL1       -0.2399
@<TRIPOS>BOND
     1    23    24    1
     2    24    25   ar
     3    25    26   ar
     4     1    26    1
     5     1    15    1
     6    15    16   ar
     7    16    17   ar
     8    17    18   ar
     9    18    19    1
    10    18    20   ar
    11     1     2    1
    12     2     3    1
    13     3    29    1
    14    29    30   ar
    15    30    31   ar
    16    31    35    1
    17    35    36   ar
    18    36    37   ar
    19    37    38   ar
    20    38    39    1
    21    38    40   ar
    22    40    41   ar
    23    31    32   ar
    24    32    33   ar
    25     3     4    1
    26     4     5    1
    27     5     6    2
    28     6     7    1
    29     7     8    2
    30     8     9    1
    31     9    10    1
    32    10    11    2
    33    11    12    1
    34    12    13    2
    35    26    27   ar
    36    27    28   ar
    37    28    24   ar
    38     6     1    1
    39    13     8    1
    40    20    15   ar
    41    33    29   ar
    42    13     5    1
    43    41    35   ar
    44    19    21    1
    45    19    22    1
    46     2    14    1
    47    33    34    1
@<TRIPOS>MOLECULE
*****
 41 47 0 0 0
SMALL
GASTEIGER

@<TRIPOS>ATOM
      1 C         139.3587  140.6789  164.2801 C.3     1  UNL1        0.1707
      2 N         139.4601  141.7551  163.2402 N.3     1  UNL1       -0.2797
      3 C         139.8088  143.1572  163.6434 C.3     1  UNL1        0.1167
      4 C         140.0561  143.4831  165.0866 C.3     1  UNL1        0.0511
      5 C         139.9547  142.4068  166.1265 C.2     1  UNL1       -0.0037
      6 C         139.6060  141.0048  165.7233 C.2     1  UNL1        0.0800
      7 N         139.5785  140.1595  166.9621 N.2     1  UNL1       -0.2519
      8 C         139.9100  141.0391  168.1310 C.2     1  UNL1        0.0627
      9 C         140.0303  140.7548  169.5988 C.3     1  UNL1        0.0717
     10 C         140.3831  141.8595  170.5503 C.2     1  UNL1       -0.0198
     11 C         140.6156  143.2484  170.0338 C.2     1  UNL1       -0.0042
     12 C         140.4954  143.5327  168.5660 C.2     1  UNL1        0.0006
     13 C         140.1426  142.4281  167.6146 C.2     1  UNL1        0.0111
     14 H         138.5543  141.7997  162.7732 H       1  UNL1        0.1246
     15 C         139.1458  139.3263  164.8928 C.ar    1  UNL1        0.2494
     16 N         140.0452  138.1362  164.7365 N.ar    1  UNL1       -0.1082
     17 N         139.4513  137.0008  165.5165 N.ar    1  UNL1       -0.0928
     18 C         138.1849  137.4894  166.1548 C.ar    1  UNL1        0.3052
     19 N         137.2682  136.6824  167.0257 N.pl3   1  UNL1       -0.3115
     20 O         137.9961  138.9267  165.7693 O.2     1  UNL1       -0.4068
     21 H         137.4786  135.7410  167.2226 H       1  UNL1        0.1467
     22 H         136.4561  137.0941  167.4003 H       1  UNL1        0.1467
     23 C         139.7788  138.3107  159.5795 C.3     1  UNL1        0.1537
     24 N         139.2305  138.7948  160.8891 N.ar    1  UNL1       -0.2476
     25 C         139.9610  139.6354  161.8941 C.ar    1  UNL1        0.0945
     26 C         139.0375  139.8833  163.0498 C.ar    1  UNL1        0.0439
     27 C         137.7363  139.1960  162.7591 C.ar    1  UNL1        0.1194
     28 N         137.8556  138.5232  161.4237 N.ar    1  UNL1       -0.1679
     29 C         139.9101  144.2335  162.6035 C.ar    1  UNL1        0.1319
     30 N         140.2342  144.0303  161.1531 N.ar    1  UNL1       -0.2282
     31 C         140.2296  145.3731  160.4846 C.ar    1  UNL1        0.1171
     32 C         139.9027  146.4062  161.5219 C.ar    1  UNL1        0.0942
     33 N         139.7052  145.7019  162.8314 N.ar    1  UNL1       -0.3385
     34 H         139.4806  146.1284  163.6898 H       1  UNL1        0.1672
     35 C         140.5038  145.6366  159.0336 C.ar    1  UNL1        0.1006
     36 C         141.7899  145.1722  158.4170 C.ar    1  UNL1        0.0230
     37 C         142.0642  145.4357  156.9660 C.ar    1  UNL1        0.0328
     38 C         141.0522  146.1634  156.1316 C.ar    1  UNL1        0.1592
     39 F         141.3264  146.4269  154.6806 F       1  UNL1       -0.2025
     40 C         139.7660  146.6278  156.7482 C.ar    1  UNL1        0.1284
     41 N         139.4918  146.3644  158.1992 N.ar    1  UNL1       -0.2399
@<TRIPOS>BOND
     1    23    24    1
     2    24    25   ar
     3    25    26   ar
     4     1    26    1
     5     1    15    1
     6    15    16   ar
     7    16    17   ar
     8    17    18   ar
     9    18    19    1
    10    18    20   ar
    11     1     2    1
    12     2     3    1
    13     3    29    1
    14    29    30   ar
    15    30    31   ar
    16    31    35    1
    17    35    36   ar
    18    36    37   ar
    19    37    38   ar
    20    38    39    1
    21    38    40   ar
    22    40    41   ar
    23    31    32   ar
    24    32    33   ar
    25     3     4    1
    26     4     5    1
    27     5     6    2
    28     6     7    1
    29     7     8    2
    30     8     9    1
    31     9    10    1
    32    10    11    2
    33    11    12    1
    34    12    13    2
    35    26    27   ar
    36    27    28   ar
    37    28    24   ar
    38     6     1    1
    39    13     8    1
    40    20    15   ar
    41    33    29   ar
    42    13     5    1
    43    41    35   ar
    44    19    21    1
    45    19    22    1
    46     2    14    1
    47    33    34    1
@<TRIPOS>MOLECULE
*****
 41 47 0 0 0
SMALL
GASTEIGER

@<TRIPOS>ATOM
      1 C         142.5219  142.6523  160.1246 C.3     1  UNL1        0.1707
      2 N         141.9759  143.2794  158.8762 N.3     1  UNL1       -0.2797
      3 C         140.7767  144.1774  158.9508 C.3     1  UNL1        0.1167
      4 C         140.1235  144.4482  160.2737 C.3     1  UNL1        0.0511
      5 C         140.6696  143.8210  161.5221 C.2     1  UNL1       -0.0037
      6 C         141.8688  142.9231  161.4475 C.2     1  UNL1        0.0800
      7 N         142.1805  142.4499  162.8364 N.2     1  UNL1       -0.2519
      8 C         141.1740  143.0554  163.7693 C.2     1  UNL1        0.0627
      9 C         140.9872  142.9446  165.2534 C.3     1  UNL1        0.0717
     10 C         139.8665  143.6813  165.9253 C.2     1  UNL1       -0.0198
     11 C         138.9327  144.5287  165.1130 C.2     1  UNL1       -0.0042
     12 C         139.1195  144.6395  163.6288 C.2     1  UNL1        0.0006
     13 C         140.2402  143.9028  162.9570 C.2     1  UNL1        0.0111
     14 H         141.7332  142.5159  158.2450 H       1  UNL1        0.1246
     15 C         143.4008  141.8321  161.0218 C.ar    1  UNL1        0.2494
     16 N         144.6919  142.2797  161.6403 N.ar    1  UNL1       -0.1082
     17 N         145.2319  141.1445  162.4588 N.ar    1  UNL1       -0.0928
     18 C         144.2744  139.9954  162.3461 C.ar    1  UNL1        0.3052
     19 N         144.4226  138.6564  163.0058 N.pl3   1  UNL1       -0.3115
     20 O         143.1427  140.4204  161.4580 O.2     1  UNL1       -0.4068
     21 H         145.2051  138.4714  163.5738 H       1  UNL1        0.1467
     22 H         143.7373  137.9626  162.8707 H       1  UNL1        0.1467
     23 C         146.4547  142.2496  156.6243 C.3     1  UNL1        0.1537
     24 N         145.2880  141.9115  157.5044 N.ar    1  UNL1       -0.2476
     25 C         144.5823  142.8541  158.4337 C.ar    1  UNL1        0.0945
     26 C         143.4803  142.0966  159.1133 C.ar    1  UNL1        0.0439
     27 C         143.5050  140.6859  158.6041 C.ar    1  UNL1        0.1194
     28 N         144.6223  140.5715  157.6097 N.ar    1  UNL1       -0.1679
     29 C         140.2306  144.8046  157.7023 C.ar    1  UNL1        0.1319
     30 N         140.4292  146.2274  157.2710 N.ar    1  UNL1       -0.2282
     31 C         139.7114  146.4213  155.9682 C.ar    1  UNL1        0.1171
     32 C         139.0692  145.1183  155.5945 C.ar    1  UNL1        0.0942
     33 N         139.3901  144.1191  156.6662 N.ar    1  UNL1       -0.3385
     34 H         139.0999  143.1786  156.6861 H       1  UNL1        0.1672
     35 C         139.6472  147.6947  155.1780 C.ar    1  UNL1        0.1006
     36 C         140.2752  147.7656  153.8176 C.ar    1  UNL1        0.0230
     37 C         140.2110  149.0389  153.0274 C.ar    1  UNL1        0.0328
     38 C         139.5187  150.2413  153.5975 C.ar    1  UNL1        0.1592
     39 F         139.4544  151.5147  152.8072 F       1  UNL1       -0.2025
     40 C         138.8907  150.1704  154.9578 C.ar    1  UNL1        0.1284
     41 N         138.9549  148.8971  155.7481 N.ar    1  UNL1       -0.2399
@<TRIPOS>BOND
     1    23    24    1
     2    24    25   ar
     3    25    26   ar
     4     1    26    1
     5     1    15    1
     6    15    16   ar
     7    16    17   ar
     8    17    18   ar
     9    18    19    1
    10    18    20   ar
    11     1     2    1
    12     2     3    1
    13     3    29    1
    14    29    30   ar
    15    30    31   ar
    16    31    35    1
    17    35    36   ar
    18    36    37   ar
    19    37    38   ar
    20    38    39    1
    21    38    40   ar
    22    40    41   ar
    23    31    32   ar
    24    32    33   ar
    25     3     4    1
    26     4     5    1
    27     5     6    2
    28     6     7    1
    29     7     8    2
    30     8     9    1
    31     9    10    1
    32    10    11    2
    33    11    12    1
    34    12    13    2
    35    26    27   ar
    36    27    28   ar
    37    28    24   ar
    38     6     1    1
    39    13     8    1
    40    20    15   ar
    41    33    29   ar
    42    13     5    1
    43    41    35   ar
    44    19    21    1
    45    19    22    1
    46     2    14    1
    47    33    34    1
@<TRIPOS>MOLECULE
*****
 41 47 0 0 0
SMALL
GASTEIGER

@<TRIPOS>ATOM
      1 C         141.4750  141.0009  160.0010 C.3     1  UNL1        0.1707
      2 N         140.8944  141.8441  158.9047 N.3     1  UNL1       -0.2797
      3 C         140.9804  143.3395  158.9833 C.3     1  UNL1        0.1167
      4 C         141.6470  143.9918  160.1582 C.3     1  UNL1        0.0511
      5 C         142.2276  143.1486  161.2545 C.2     1  UNL1       -0.0037
      6 C         142.1416  141.6531  161.1759 C.2     1  UNL1        0.0800
      7 N         142.7998  141.0861  162.3987 N.2     1  UNL1       -0.2519
      8 C         143.2927  142.2312  163.2330 C.2     1  UNL1        0.0627
      9 C         144.0177  142.2778  164.5452 C.3     1  UNL1        0.0717
     10 C         144.3892  143.5991  165.1503 C.2     1  UNL1       -0.0198
     11 C         144.0355  144.8738  164.4431 C.2     1  UNL1       -0.0042
     12 C         143.3104  144.8272  163.1308 C.2     1  UNL1        0.0006
     13 C         142.9390  143.5059  162.5258 C.2     1  UNL1        0.0111
     14 H         139.9037  141.6088  158.8456 H       1  UNL1        0.1246
     15 C         141.8720  139.7844  160.7838 C.ar    1  UNL1        0.2494
     16 N         143.1978  139.0863  160.7161 N.ar    1  UNL1       -0.1082
     17 N         143.1580  137.9229  161.6622 N.ar    1  UNL1       -0.0928
     18 C         141.8075  137.9021  162.3146 C.ar    1  UNL1        0.3052
     19 N         141.3348  136.9057  163.3313 N.pl3   1  UNL1       -0.3115
     20 O         141.0127  139.0526  161.7717 O.2     1  UNL1       -0.4068
     21 H         141.9333  136.1819  163.6265 H       1  UNL1        0.1467
     22 H         140.4260  136.9755  163.7035 H       1  UNL1        0.1467
     23 C         141.1688  137.2789  156.2681 C.3     1  UNL1        0.1537
     24 N         140.8055  138.2154  157.3823 N.ar    1  UNL1       -0.2476
     25 C         141.7243  139.2023  158.0394 C.ar    1  UNL1        0.0945
     26 C         140.9463  139.9261  159.0981 C.ar    1  UNL1        0.0439
     27 C         139.5467  139.3865  159.0952 C.ar    1  UNL1        0.1194
     28 N         139.4597  138.3292  158.0348 N.ar    1  UNL1       -0.1679
     29 C         140.3998  144.1828  157.8870 C.ar    1  UNL1        0.1319
     30 N         140.2855  145.6784  157.8917 N.ar    1  UNL1       -0.2282
     31 C         139.6467  146.0985  156.6011 C.ar    1  UNL1        0.1171
     32 C         139.3663  144.8625  155.7989 C.ar    1  UNL1        0.0942
     33 N         139.8317  143.6785  156.5936 N.ar    1  UNL1       -0.3385
     34 H         139.7744  142.7360  156.3151 H       1  UNL1        0.1672
     35 C         139.3419  147.5073  156.1858 C.ar    1  UNL1        0.1006
     36 C         139.7856  148.0058  154.8425 C.ar    1  UNL1        0.0230
     37 C         139.4808  149.4146  154.4271 C.ar    1  UNL1        0.0328
     38 C         138.7323  150.3247  155.3551 C.ar    1  UNL1        0.1592
     39 F         138.4274  151.7335  154.9398 F       1  UNL1       -0.2025
     40 C         138.2885  149.8262  156.6984 C.ar    1  UNL1        0.1284
     41 N         138.5933  148.4175  157.1138 N.ar    1  UNL1       -0.2399
@<TRIPOS>BOND
     1    23    24    1
     2    24    25   ar
     3    25    26   ar
     4     1    26    1
     5     1    15    1
     6    15    16   ar
     7    16    17   ar
     8    17    18   ar
     9    18    19    1
    10    18    20   ar
    11     1     2    1
    12     2     3    1
    13     3    29    1
    14    29    30   ar
    15    30    31   ar
    16    31    35    1
    17    35    36   ar
    18    36    37   ar
    19    37    38   ar
    20    38    39    1
    21    38    40   ar
    22    40    41   ar
    23    31    32   ar
    24    32    33   ar
    25     3     4    1
    26     4     5    1
    27     5     6    2
    28     6     7    1
    29     7     8    2
    30     8     9    1
    31     9    10    1
    32    10    11    2
    33    11    12    1
    34    12    13    2
    35    26    27   ar
    36    27    28   ar
    37    28    24   ar
    38     6     1    1
    39    13     8    1
    40    20    15   ar
    41    33    29   ar
    42    13     5    1
    43    41    35   ar
    44    19    21    1
    45    19    22    1
    46     2    14    1
    47    33    34    1
@<TRIPOS>MOLECULE
*****
 41 47 0 0 0
SMALL
GASTEIGER

@<TRIPOS>ATOM
      1 C         140.8269  141.2262  159.7245 C.3     1  UNL1        0.1707
      2 N         141.1605  140.1301  158.7564 N.3     1  UNL1       -0.2797
      3 C         142.4493  139.3750  158.8934 C.3     1  UNL1        0.1167
      4 C         143.4046  139.7161  159.9984 C.3     1  UNL1        0.0511
      5 C         143.0711  140.8123  160.9665 C.2     1  UNL1       -0.0037
      6 C         141.7822  141.5673  160.8295 C.2     1  UNL1        0.0800
      7 N         141.7254  142.5898  161.9256 N.2     1  UNL1       -0.2519
      8 C         142.9791  142.4667  162.7399 C.2     1  UNL1        0.0627
      9 C         143.4708  143.2130  163.9445 C.3     1  UNL1        0.0717
     10 C         144.7942  142.8607  164.5564 C.2     1  UNL1       -0.0198
     11 C         145.6259  141.7621  163.9636 C.2     1  UNL1       -0.0042
     12 C         145.1342  141.0158  162.7590 C.2     1  UNL1        0.0006
     13 C         143.8108  141.3681  162.1471 C.2     1  UNL1        0.0111
     14 H         141.1620  140.5490  157.8264 H       1  UNL1        0.1246
     15 C         140.0703  142.3380  160.3891 C.ar    1  UNL1        0.2494
     16 N         140.2796  143.8057  160.1618 N.ar    1  UNL1       -0.1082
     17 N         139.3102  144.5520  161.0299 N.ar    1  UNL1       -0.0928
     18 C         138.5019  143.5454  161.7936 C.ar    1  UNL1        0.3052
     19 N         137.4147  143.8531  162.7802 N.pl3   1  UNL1       -0.3115
     20 O         138.9717  142.1770  161.3975 O.2     1  UNL1       -0.4068
     21 H         137.1769  144.7885  162.9747 H       1  UNL1        0.1467
     22 H         136.9390  143.1198  163.2331 H       1  UNL1        0.1467
     23 C         137.2668  142.7815  156.1486 C.3     1  UNL1        0.1537
     24 N         137.9724  141.9861  157.2067 N.ar    1  UNL1       -0.2476
     25 C         139.2780  142.3423  157.8536 C.ar    1  UNL1        0.0945
     26 C         139.6089  141.2712  158.8503 C.ar    1  UNL1        0.0439
     27 C         138.5077  140.2531  158.8193 C.ar    1  UNL1        0.1194
     28 N         137.4964  140.6949  157.8034 N.ar    1  UNL1       -0.1679
     29 C         142.7829  138.2788  157.9252 C.ar    1  UNL1        0.1319
     30 N         142.3759  136.8404  158.0477 N.ar    1  UNL1       -0.2282
     31 C         142.9235  136.1012  156.8629 C.ar    1  UNL1        0.1171
     32 C         143.6690  137.0829  156.0082 C.ar    1  UNL1        0.0942
     33 N         143.5821  138.4287  156.6648 N.ar    1  UNL1       -0.3385
     34 H         143.9798  139.2639  156.3276 H       1  UNL1        0.1672
     35 C         142.7551  134.6373  156.5822 C.ar    1  UNL1        0.1006
     36 C         141.7466  134.1788  155.5709 C.ar    1  UNL1        0.0230
     37 C         141.5782  132.7150  155.2901 C.ar    1  UNL1        0.0328
     38 C         142.4184  131.7097  156.0206 C.ar    1  UNL1        0.1592
     39 F         142.2500  130.2458  155.7398 F       1  UNL1       -0.2025
     40 C         143.4269  132.1683  157.0318 C.ar    1  UNL1        0.1284
     41 N         143.5953  133.6321  157.3126 N.ar    1  UNL1       -0.2399
@<TRIPOS>BOND
     1    23    24    1
     2    24    25   ar
     3    25    26   ar
     4     1    26    1
     5     1    15    1
     6    15    16   ar
     7    16    17   ar
     8    17    18   ar
     9    18    19    1
    10    18    20   ar
    11     1     2    1
    12     2     3    1
    13     3    29    1
    14    29    30   ar
    15    30    31   ar
    16    31    35    1
    17    35    36   ar
    18    36    37   ar
    19    37    38   ar
    20    38    39    1
    21    38    40   ar
    22    40    41   ar
    23    31    32   ar
    24    32    33   ar
    25     3     4    1
    26     4     5    1
    27     5     6    2
    28     6     7    1
    29     7     8    2
    30     8     9    1
    31     9    10    1
    32    10    11    2
    33    11    12    1
    34    12    13    2
    35    26    27   ar
    36    27    28   ar
    37    28    24   ar
    38     6     1    1
    39    13     8    1
    40    20    15   ar
    41    33    29   ar
    42    13     5    1
    43    41    35   ar
    44    19    21    1
    45    19    22    1
    46     2    14    1
    47    33    34    1
@<TRIPOS>MOLECULE
*****
 41 47 0 0 0
SMALL
GASTEIGER

@<TRIPOS>ATOM
      1 C         141.5353  141.8715  158.9285 C.3     1  UNL1        0.1707
      2 N         141.4458  140.5969  158.1429 N.3     1  UNL1       -0.2797
      3 C         142.2013  139.3825  158.5952 C.3     1  UNL1        0.1167
      4 C         143.0463  139.4428  159.8331 C.3     1  UNL1        0.0511
      5 C         143.1359  140.7175  160.6187 C.2     1  UNL1       -0.0037
      6 C         142.3804  141.9318  160.1664 C.2     1  UNL1        0.0800
      7 N         142.6601  143.0401  161.1377 N.2     1  UNL1       -0.2519
      8 C         143.5885  142.5107  162.1903 C.2     1  UNL1        0.0627
      9 C         144.2041  143.1503  163.3994 C.3     1  UNL1        0.0717
     10 C         145.1137  142.3544  164.2876 C.2     1  UNL1       -0.0198
     11 C         145.4077  140.9189  163.9668 C.2     1  UNL1       -0.0042
     12 C         144.7922  140.2793  162.7578 C.2     1  UNL1        0.0006
     13 C         143.8825  141.0752  161.8695 C.2     1  UNL1        0.0111
     14 H         141.7681  140.8095  157.1989 H       1  UNL1        0.1246
     15 C         141.3034  143.2973  159.3331 C.ar    1  UNL1        0.2494
     16 N         142.1440  144.4743  158.9359 N.ar    1  UNL1       -0.1082
     17 N         141.5503  145.7007  159.5633 N.ar    1  UNL1       -0.0928
     18 C         140.3428  145.2815  160.3481 C.ar    1  UNL1        0.3052
     19 N         139.4453  146.1885  161.1368 N.pl3   1  UNL1       -0.3115
     20 O         140.1902  143.7960  160.2059 O.2     1  UNL1       -0.4068
     21 H         139.6286  147.1552  161.1699 H       1  UNL1        0.1467
     22 H         138.6730  145.8171  161.6214 H       1  UNL1        0.1467
     23 C         137.1556  142.8541  156.1476 C.3     1  UNL1        0.1537
     24 N         138.5966  142.7580  156.5529 N.ar    1  UNL1       -0.2476
     25 C         139.1130  142.2100  157.8503 C.ar    1  UNL1        0.0945
     26 C         140.6097  142.3064  157.8312 C.ar    1  UNL1        0.0439
     27 C         141.0185  142.9140  156.5221 C.ar    1  UNL1        0.1194
     28 N         139.7742  143.1931  155.7321 N.ar    1  UNL1       -0.1679
     29 C         142.1117  138.1077  157.8096 C.ar    1  UNL1        0.1319
     30 N         143.0447  136.9383  157.9176 N.ar    1  UNL1       -0.2282
     31 C         142.5832  135.8865  156.9528 C.ar    1  UNL1        0.1171
     32 C         141.3649  136.4060  156.2487 C.ar    1  UNL1        0.0942
     33 N         141.0735  137.7788  156.7782 N.ar    1  UNL1       -0.3385
     34 H         140.3312  138.3616  156.4979 H       1  UNL1        0.1672
     35 C         143.2269  134.5498  156.7312 C.ar    1  UNL1        0.1006
     36 C         143.0749  133.8538  155.4112 C.ar    1  UNL1        0.0230
     37 C         143.7186  132.5172  155.1896 C.ar    1  UNL1        0.0328
     38 C         144.5142  131.8766  156.2880 C.ar    1  UNL1        0.1592
     39 F         145.1580  130.5400  156.0663 F       1  UNL1       -0.2025
     40 C         144.6662  132.5726  157.6080 C.ar    1  UNL1        0.1284
     41 N         144.0225  133.9092  157.8296 N.ar    1  UNL1       -0.2399
@<TRIPOS>BOND
     1    23    24    1
     2    24    25   ar
     3    25    26   ar
     4     1    26    1
     5     1    15    1
     6    15    16   ar
     7    16    17   ar
     8    17    18   ar
     9    18    19    1
    10    18    20   ar
    11     1     2    1
    12     2     3    1
    13     3    29    1
    14    29    30   ar
    15    30    31   ar
    16    31    35    1
    17    35    36   ar
    18    36    37   ar
    19    37    38   ar
    20    38    39    1
    21    38    40   ar
    22    40    41   ar
    23    31    32   ar
    24    32    33   ar
    25     3     4    1
    26     4     5    1
    27     5     6    2
    28     6     7    1
    29     7     8    2
    30     8     9    1
    31     9    10    1
    32    10    11    2
    33    11    12    1
    34    12    13    2
    35    26    27   ar
    36    27    28   ar
    37    28    24   ar
    38     6     1    1
    39    13     8    1
    40    20    15   ar
    41    33    29   ar
    42    13     5    1
    43    41    35   ar
    44    19    21    1
    45    19    22    1
    46     2    14    1
    47    33    34    1
@<TRIPOS>MOLECULE
*****
 41 47 0 0 0
SMALL
GASTEIGER

@<TRIPOS>ATOM
      1 C         141.5231  142.0499  161.5771 C.3     1  UNL1        0.1707
      2 N         141.6991  141.2794  160.3022 N.3     1  UNL1       -0.2797
      3 C         142.2082  139.8690  160.3424 C.3     1  UNL1        0.1167
      4 C         142.5413  139.2291  161.6575 C.3     1  UNL1        0.0511
      5 C         142.3653  139.9996  162.9324 C.2     1  UNL1       -0.0037
      6 C         141.8562  141.4099  162.8922 C.2     1  UNL1        0.0800
      7 N         141.7852  141.9174  164.3019 N.2     1  UNL1       -0.2519
      8 C         142.2504  140.8207  165.2134 C.2     1  UNL1        0.0627
      9 C         142.3938  140.7483  166.7048 C.3     1  UNL1        0.0717
     10 C         142.8958  139.4905  167.3497 C.2     1  UNL1       -0.0198
     11 C         143.2543  138.3052  166.5033 C.2     1  UNL1       -0.0042
     12 C         143.1109  138.3776  165.0119 C.2     1  UNL1        0.0006
     13 C         142.6089  139.6354  164.3670 C.2     1  UNL1        0.0111
     14 H         142.3501  141.8111  159.7243 H       1  UNL1        0.1246
     15 C         141.1914  143.1787  162.5075 C.ar    1  UNL1        0.2494
     16 N         142.0820  144.3394  162.8383 N.ar    1  UNL1       -0.1082
     17 N         141.3518  145.2230  163.8058 N.ar    1  UNL1       -0.0928
     18 C         140.0099  144.6084  164.0729 C.ar    1  UNL1        0.3052
     19 N         138.9527  145.1604  164.9827 N.pl3   1  UNL1       -0.3115
     20 O         139.9107  143.3449  163.2705 O.2     1  UNL1       -0.4068
     21 H         139.1120  146.0013  165.4693 H       1  UNL1        0.1467
     22 H         138.0995  144.6818  165.0933 H       1  UNL1        0.1467
     23 C         141.5792  145.8567  157.9184 C.3     1  UNL1        0.1537
     24 N         141.1005  144.8316  158.9034 N.ar    1  UNL1       -0.2476
     25 C         141.9693  143.9501  159.7509 C.ar    1  UNL1        0.0945
     26 C         141.0748  143.0818  160.5851 C.ar    1  UNL1        0.0439
     27 C         139.6532  143.4267  160.2532 C.ar    1  UNL1        0.1194
     28 N         139.6691  144.5082  159.2138 N.ar    1  UNL1       -0.1679
     29 C         142.3842  139.0985  159.0674 C.ar    1  UNL1        0.1319
     30 N         142.6252  137.6222  158.9557 N.ar    1  UNL1       -0.2282
     31 C         142.7400  137.2803  157.4997 C.ar    1  UNL1        0.1171
     32 C         142.5701  138.5453  156.7117 C.ar    1  UNL1        0.0942
     33 N         142.3502  139.6690  157.6806 N.ar    1  UNL1       -0.3385
     34 H         142.2084  140.6149  157.4473 H       1  UNL1        0.1672
     35 C         142.9824  135.9133  156.9315 C.ar    1  UNL1        0.1006
     36 C         142.8130  135.6717  155.4608 C.ar    1  UNL1        0.0230
     37 C         143.0553  134.3048  154.8926 C.ar    1  UNL1        0.0328
     38 C         143.4669  133.1796  155.7950 C.ar    1  UNL1        0.1592
     39 F         143.7092  131.8126  155.2268 F       1  UNL1       -0.2025
     40 C         143.6362  133.4213  157.2657 C.ar    1  UNL1        0.1284
     41 N         143.3940  134.7882  157.8339 N.ar    1  UNL1       -0.2399
@<TRIPOS>BOND
     1    23    24    1
     2    24    25   ar
     3    25    26   ar
     4     1    26    1
     5     1    15    1
     6    15    16   ar
     7    16    17   ar
     8    17    18   ar
     9    18    19    1
    10    18    20   ar
    11     1     2    1
    12     2     3    1
    13     3    29    1
    14    29    30   ar
    15    30    31   ar
    16    31    35    1
    17    35    36   ar
    18    36    37   ar
    19    37    38   ar
    20    38    39    1
    21    38    40   ar
    22    40    41   ar
    23    31    32   ar
    24    32    33   ar
    25     3     4    1
    26     4     5    1
    27     5     6    2
    28     6     7    1
    29     7     8    2
    30     8     9    1
    31     9    10    1
    32    10    11    2
    33    11    12    1
    34    12    13    2
    35    26    27   ar
    36    27    28   ar
    37    28    24   ar
    38     6     1    1
    39    13     8    1
    40    20    15   ar
    41    33    29   ar
    42    13     5    1
    43    41    35   ar
    44    19    21    1
    45    19    22    1
    46     2    14    1
    47    33    34    1
@<TRIPOS>MOLECULE
*****
 41 47 0 0 0
SMALL
GASTEIGER

@<TRIPOS>ATOM
      1 C         141.8490  141.8954  160.3873 C.3     1  UNL1        0.1707
      2 N         141.4788  142.6381  159.1377 N.3     1  UNL1       -0.2797
      3 C         140.5635  143.8241  159.2136 C.3     1  UNL1        0.1167
      4 C         140.0186  144.2674  160.5389 C.3     1  UNL1        0.0511
      5 C         140.3889  143.5247  161.7884 C.2     1  UNL1       -0.0037
      6 C         141.3041  142.3387  161.7126 C.2     1  UNL1        0.0800
      7 N         141.4910  141.8079  163.1030 N.2     1  UNL1       -0.2519
      8 C         140.6913  142.6657  164.0382 C.2     1  UNL1        0.0627
      9 C         140.4953  142.6178  165.5245 C.3     1  UNL1        0.0717
     10 C         139.6182  143.6309  166.1984 C.2     1  UNL1       -0.0198
     11 C         138.9370  144.6920  165.3859 C.2     1  UNL1       -0.0042
     12 C         139.1330  144.7400  163.8996 C.2     1  UNL1        0.0006
     13 C         140.0101  143.7268  163.2257 C.2     1  UNL1        0.0111
     14 H         141.0353  141.9633  158.5146 H       1  UNL1        0.1246
     15 C         142.4853  140.8758  161.2848 C.ar    1  UNL1        0.2494
     16 N         141.9629  139.4976  161.5630 N.ar    1  UNL1       -0.1082
     17 N         142.9105  138.8254  162.5119 N.ar    1  UNL1       -0.0928
     18 C         144.0186  139.7883  162.8201 C.ar    1  UNL1        0.3052
     19 N         145.1847  139.5294  163.7274 N.pl3   1  UNL1       -0.3115
     20 O         143.7558  141.0555  162.0617 O.2     1  UNL1       -0.4068
     21 H         145.2704  138.6611  164.1833 H       1  UNL1        0.1467
     22 H         145.8643  140.2279  163.8670 H       1  UNL1        0.1467
     23 C         143.0381  138.4676  156.5509 C.3     1  UNL1        0.1537
     24 N         143.1616  139.5224  157.6103 N.ar    1  UNL1       -0.2476
     25 C         142.0423  140.0654  158.4485 C.ar    1  UNL1        0.0945
     26 C         142.6150  141.0980  159.3737 C.ar    1  UNL1        0.0439
     27 C         144.0881  141.1931  159.1072 C.ar    1  UNL1        0.1194
     28 N         144.4259  140.2193  158.0174 N.ar    1  UNL1       -0.1679
     29 C         140.1932  144.5668  157.9640 C.ar    1  UNL1        0.1319
     30 N         140.0566  146.0546  157.8305 N.ar    1  UNL1       -0.2282
     31 C         139.6735  146.3595  156.4127 C.ar    1  UNL1        0.1171
     32 C         139.5733  145.0601  155.6700 C.ar    1  UNL1        0.0942
     33 N         139.8945  143.9522  156.6288 N.ar    1  UNL1       -0.3385
     34 H         139.9071  142.9905  156.4186 H       1  UNL1        0.1672
     35 C         139.4328  147.7242  155.8384 C.ar    1  UNL1        0.1006
     36 C         139.9473  148.0638  154.4710 C.ar    1  UNL1        0.0230
     37 C         139.7066  149.4285  153.8967 C.ar    1  UNL1        0.0328
     38 C         138.9514  150.4534  154.6898 C.ar    1  UNL1        0.1592
     39 F         138.7107  151.8181  154.1155 F       1  UNL1       -0.2025
     40 C         138.4369  150.1137  156.0572 C.ar    1  UNL1        0.1284
     41 N         138.6775  148.7491  156.6315 N.ar    1  UNL1       -0.2399
@<TRIPOS>BOND
     1    23    24    1
     2    24    25   ar
     3    25    26   ar
     4     1    26    1
     5     1    15    1
     6    15    16   ar
     7    16    17   ar
     8    17    18   ar
     9    18    19    1
    10    18    20   ar
    11     1     2    1
    12     2     3    1
    13     3    29    1
    14    29    30   ar
    15    30    31   ar
    16    31    35    1
    17    35    36   ar
    18    36    37   ar
    19    37    38   ar
    20    38    39    1
    21    38    40   ar
    22    40    41   ar
    23    31    32   ar
    24    32    33   ar
    25     3     4    1
    26     4     5    1
    27     5     6    2
    28     6     7    1
    29     7     8    2
    30     8     9    1
    31     9    10    1
    32    10    11    2
    33    11    12    1
    34    12    13    2
    35    26    27   ar
    36    27    28   ar
    37    28    24   ar
    38     6     1    1
    39    13     8    1
    40    20    15   ar
    41    33    29   ar
    42    13     5    1
    43    41    35   ar
    44    19    21    1
    45    19    22    1
    46     2    14    1
    47    33    34    1
@<TRIPOS>MOLECULE
*****
 41 47 0 0 0
SMALL
GASTEIGER

@<TRIPOS>ATOM
      1 C         141.0319  142.4767  159.4984 C.3     1  UNL1        0.1707
      2 N         139.7814  142.1078  158.7567 N.3     1  UNL1       -0.2797
      3 C         139.8568  141.7027  157.3144 C.3     1  UNL1        0.1167
      4 C         141.1827  141.6666  156.6138 C.3     1  UNL1        0.0511
      5 C         142.4331  142.0355  157.3555 C.2     1  UNL1       -0.0037
      6 C         142.3578  142.4406  158.7978 C.2     1  UNL1        0.0800
      7 N         143.7491  142.7485  159.2661 N.2     1  UNL1       -0.2519
      8 C         144.6844  142.5337  158.1132 C.2     1  UNL1        0.0627
      9 C         146.1716  142.6825  157.9860 C.3     1  UNL1        0.0717
     10 C         146.8454  142.3906  156.6781 C.2     1  UNL1       -0.0198
     11 C         146.0320  141.9500  155.4973 C.2     1  UNL1       -0.0042
     12 C         144.5449  141.8012  155.6244 C.2     1  UNL1        0.0006
     13 C         143.8711  142.0931  156.9324 C.2     1  UNL1        0.0111
     14 H         139.1619  142.9167  158.8034 H       1  UNL1        0.1246
     15 C         141.9304  142.9105  160.6185 C.ar    1  UNL1        0.2494
     16 N         142.5231  142.0189  161.6690 N.ar    1  UNL1       -0.1082
     17 N         143.3529  142.8695  162.5845 N.ar    1  UNL1       -0.0928
     18 C         143.2729  144.2867  162.0997 C.ar    1  UNL1        0.3052
     19 N         143.9528  145.4708  162.7209 N.pl3   1  UNL1       -0.3115
     20 O         142.3937  144.3121  160.8846 O.2     1  UNL1       -0.4068
     21 H         144.5128  145.3526  163.5219 H       1  UNL1        0.1467
     22 H         143.8390  146.3661  162.3276 H       1  UNL1        0.1467
     23 C         137.4817  141.4833  163.2787 C.3     1  UNL1        0.1537
     24 N         138.3863  142.2069  162.3256 N.ar    1  UNL1       -0.2476
     25 C         139.3061  141.5693  161.3269 C.ar    1  UNL1        0.0945
     26 C         140.0181  142.6635  160.5880 C.ar    1  UNL1        0.0439
     27 C         139.5382  143.9772  161.1301 C.ar    1  UNL1        0.1194
     28 N         138.5297  143.6950  162.2040 N.ar    1  UNL1       -0.1679
     29 C         138.6063  141.3338  156.5726 C.ar    1  UNL1        0.1319
     30 N         137.2272  141.2499  157.1565 N.ar    1  UNL1       -0.2282
     31 C         136.2839  140.8482  156.0615 C.ar    1  UNL1        0.1171
     32 C         137.0801  140.6840  154.8009 C.ar    1  UNL1        0.0942
     33 N         138.5154  140.9840  155.1168 N.ar    1  UNL1       -0.3385
     34 H         139.2660  140.9563  154.4804 H       1  UNL1        0.1672
     35 C         134.8042  140.6463  156.2024 C.ar    1  UNL1        0.1006
     36 C         133.8582  141.3715  155.2918 C.ar    1  UNL1        0.0230
     37 C         132.3786  141.1696  155.4327 C.ar    1  UNL1        0.0328
     38 C         131.8449  140.2426  156.4842 C.ar    1  UNL1        0.1592
     39 F         130.3652  140.0407  156.6251 F       1  UNL1       -0.2025
     40 C         132.7909  139.5174  157.3949 C.ar    1  UNL1        0.1284
     41 N         134.2705  139.7193  157.2540 N.ar    1  UNL1       -0.2399
@<TRIPOS>BOND
     1    23    24    1
     2    24    25   ar
     3    25    26   ar
     4     1    26    1
     5     1    15    1
     6    15    16   ar
     7    16    17   ar
     8    17    18   ar
     9    18    19    1
    10    18    20   ar
    11     1     2    1
    12     2     3    1
    13     3    29    1
    14    29    30   ar
    15    30    31   ar
    16    31    35    1
    17    35    36   ar
    18    36    37   ar
    19    37    38   ar
    20    38    39    1
    21    38    40   ar
    22    40    41   ar
    23    31    32   ar
    24    32    33   ar
    25     3     4    1
    26     4     5    1
    27     5     6    2
    28     6     7    1
    29     7     8    2
    30     8     9    1
    31     9    10    1
    32    10    11    2
    33    11    12    1
    34    12    13    2
    35    26    27   ar
    36    27    28   ar
    37    28    24   ar
    38     6     1    1
    39    13     8    1
    40    20    15   ar
    41    33    29   ar
    42    13     5    1
    43    41    35   ar
    44    19    21    1
    45    19    22    1
    46     2    14    1
    47    33    34    1
