@<TRIPOS>MOLECULE
*****
 21 23 0 0 0
SMALL
GASTEIGER

@<TRIPOS>ATOM
      1 N         138.8618  139.4870  165.1115 N.am    1  UNL1       -0.2035
      2 C         138.1986  138.8628  166.3034 C.3     1  UNL1        0.1350
      3 C         138.8185  139.4475  167.5379 C.3     1  UNL1        0.1229
      4 N         139.8648  140.4330  167.1090 N.am    1  UNL1       -0.2403
      5 C         139.8916  140.4574  165.6094 C.2     1  UNL1        0.3244
      6 O         140.7903  141.3037  164.7573 O.2     1  UNL1       -0.2507
      7 C         140.7321  141.2506  168.0197 C.ar    1  UNL1        0.0562
      8 C         142.1469  140.8295  168.2856 C.ar    1  UNL1        0.0150
      9 C         143.0142  141.6471  169.1963 C.ar    1  UNL1        0.0021
     10 C         142.4665  142.8858  169.8411 C.ar    1  UNL1        0.0115
     11 C         141.0516  143.3068  169.5752 C.ar    1  UNL1        0.0589
     12 CL        140.5039  144.5455  170.2201 Cl      1  UNL1       -0.0822
     13 C         140.1844  142.4893  168.6645 C.ar    1  UNL1        0.0263
     14 C         137.8616  140.1167  162.7140 C.3     1  UNL1        0.1056
     15 C         137.7580  139.4175  161.3910 C.3     1  UNL1        0.0217
     16 C         138.3825  138.0611  161.5335 C.3     1  UNL1        0.0206
     17 C         138.8719  137.9220  162.9446 C.3     1  UNL1        0.0923
     18 N         138.5500  139.1925  163.6741 N.3     1  UNL1       -0.2003
     19 C         137.3641  141.4977  163.0227 C.3     1  UNL1        0.1598
     20 C         137.7603  144.0644  163.0930 C.3     1  UNL1        0.1742
     21 O         138.2097  142.6913  162.6900 O.3     1  UNL1       -0.3496
@<TRIPOS>BOND
     1    20    21    1
     2    21    19    1
     3    14    19    1
     4    14    15    1
     5    15    16    1
     6    16    17    1
     7    17    18    1
     8    18     1    1
     9     1     2    1
    10     2     3    1
    11     3     4    1
    12     4     7    1
    13     7     8   ar
    14     8     9   ar
    15     9    10   ar
    16    10    11   ar
    17    11    12    1
    18    11    13   ar
    19     4     5   am
    20     5     6    2
    21    18    14    1
    22     5     1   am
    23    13     7   ar
@<TRIPOS>MOLECULE
*****
 21 23 0 0 0
SMALL
GASTEIGER

@<TRIPOS>ATOM
      1 N         140.4551  140.6922  163.8917 N.am    1  UNL1       -0.2035
      2 C         141.5808  141.5812  163.4528 C.3     1  UNL1        0.1350
      3 C         142.1118  142.2889  164.6641 C.3     1  UNL1        0.1229
      4 N         141.3143  141.8374  165.8515 N.am    1  UNL1       -0.2403
      5 C         140.2904  140.8506  165.3741 C.2     1  UNL1        0.3244
      6 O         139.2793  140.1458  166.2291 O.2     1  UNL1       -0.2507
      7 C         141.5069  142.2927  167.2678 C.ar    1  UNL1        0.0562
      8 C         140.3677  142.9197  168.0155 C.ar    1  UNL1        0.0150
      9 C         140.5603  143.3750  169.4316 C.ar    1  UNL1        0.0021
     10 C         141.8921  143.2032  170.1001 C.ar    1  UNL1        0.0115
     11 C         143.0312  142.5762  169.3524 C.ar    1  UNL1        0.0589
     12 CL        144.3630  142.4044  170.0209 Cl      1  UNL1       -0.0822
     13 C         142.8386  142.1209  167.9363 C.ar    1  UNL1        0.0263
     14 C         138.2117  140.0295  162.5984 C.3     1  UNL1        0.1056
     15 C         137.7954  138.8951  161.7097 C.3     1  UNL1        0.0217
     16 C         138.9641  137.9659  161.5659 C.3     1  UNL1        0.0206
     17 C         140.1027  138.5260  162.3658 C.3     1  UNL1        0.0923
     18 N         139.6376  139.8014  163.0039 N.3     1  UNL1       -0.2003
     19 C         137.3528  141.1885  163.0094 C.3     1  UNL1        0.1598
     20 C         138.4255  143.5105  162.5541 C.3     1  UNL1        0.1742
     21 O         137.3967  142.4686  162.2287 O.3     1  UNL1       -0.3496
@<TRIPOS>BOND
     1    20    21    1
     2    21    19    1
     3    14    19    1
     4    14    15    1
     5    15    16    1
     6    16    17    1
     7    17    18    1
     8    18     1    1
     9     1     2    1
    10     2     3    1
    11     3     4    1
    12     4     7    1
    13     7     8   ar
    14     8     9   ar
    15     9    10   ar
    16    10    11   ar
    17    11    12    1
    18    11    13   ar
    19     4     5   am
    20     5     6    2
    21    18    14    1
    22     5     1   am
    23    13     7   ar
@<TRIPOS>MOLECULE
*****
 21 23 0 0 0
SMALL
GASTEIGER

@<TRIPOS>ATOM
      1 N         141.6076  140.4614  163.6624 N.am    1  UNL1       -0.2035
      2 C         140.6288  141.5466  163.3240 C.3     1  UNL1        0.1350
      3 C         140.0180  142.0355  164.6038 C.3     1  UNL1        0.1229
      4 N         140.6191  141.2526  165.7332 N.am    1  UNL1       -0.2403
      5 C         141.6016  140.2797  165.1514 C.2     1  UNL1        0.3244
      6 O         142.4322  139.2976  165.9230 O.2     1  UNL1       -0.2507
      7 C         140.2948  141.4140  167.1888 C.ar    1  UNL1        0.0562
      8 C         139.6982  140.2712  167.9555 C.ar    1  UNL1        0.0150
      9 C         139.3739  140.4327  169.4111 C.ar    1  UNL1        0.0021
     10 C         139.6463  141.7370  170.0999 C.ar    1  UNL1        0.0115
     11 C         140.2430  142.8798  169.3332 C.ar    1  UNL1        0.0589
     12 CL        140.5154  144.1842  170.0221 Cl      1  UNL1       -0.0822
     13 C         140.5673  142.7183  167.8777 C.ar    1  UNL1        0.0263
     14 C         142.3269  138.2286  162.3811 C.3     1  UNL1        0.1056
     15 C         143.3568  137.8846  161.3462 C.3     1  UNL1        0.0217
     16 C         144.1116  139.1363  161.0094 C.3     1  UNL1        0.0206
     17 C         143.5482  140.2539  161.8360 C.3     1  UNL1        0.0923
     18 N         142.4452  139.6930  162.6838 N.3     1  UNL1       -0.2003
     19 C         141.3502  137.2757  163.0040 C.3     1  UNL1        0.1598
     20 C         138.8908  138.0126  163.4016 C.3     1  UNL1        0.1742
     21 O         139.9127  137.2887  162.5758 O.3     1  UNL1       -0.3496
@<TRIPOS>BOND
     1    20    21    1
     2    21    19    1
     3    14    19    1
     4    14    15    1
     5    15    16    1
     6    16    17    1
     7    17    18    1
     8    18     1    1
     9     1     2    1
    10     2     3    1
    11     3     4    1
    12     4     7    1
    13     7     8   ar
    14     8     9   ar
    15     9    10   ar
    16    10    11   ar
    17    11    12    1
    18    11    13   ar
    19     4     5   am
    20     5     6    2
    21    18    14    1
    22     5     1   am
    23    13     7   ar
@<TRIPOS>MOLECULE
*****
 21 23 0 0 0
SMALL
GASTEIGER

@<TRIPOS>ATOM
      1 N         141.7027  140.3426  163.5192 N.am    1  UNL1       -0.2035
      2 C         140.7814  141.4769  163.1806 C.3     1  UNL1        0.1350
      3 C         140.1707  141.9748  164.4569 C.3     1  UNL1        0.1229
      4 N         140.7146  141.1483  165.5843 N.am    1  UNL1       -0.2403
      5 C         141.6614  140.1395  165.0048 C.2     1  UNL1        0.3244
      6 O         142.4317  139.1087  165.7755 O.2     1  UNL1       -0.2507
      7 C         140.3718  141.3034  167.0365 C.ar    1  UNL1        0.0562
      8 C         139.7450  140.1645  167.7848 C.ar    1  UNL1        0.0150
      9 C         139.4022  140.3196  169.2369 C.ar    1  UNL1        0.0021
     10 C         139.6863  141.6135  169.9405 C.ar    1  UNL1        0.0115
     11 C         140.3131  142.7523  169.1921 C.ar    1  UNL1        0.0589
     12 CL        140.5972  144.0463  169.8958 Cl      1  UNL1       -0.0822
     13 C         140.6559  142.5973  167.7401 C.ar    1  UNL1        0.0263
     14 C         143.6672  140.0708  161.7271 C.3     1  UNL1        0.1056
     15 C         144.1922  138.9408  160.8919 C.3     1  UNL1        0.0217
     16 C         143.3710  137.7221  161.1922 C.3     1  UNL1        0.0206
     17 C         142.3384  138.0988  162.2129 C.3     1  UNL1        0.0923
     18 N         142.5215  139.5504  162.5435 N.3     1  UNL1       -0.2003
     19 C         144.1952  141.4747  161.7430 C.3     1  UNL1        0.1598
     20 C         145.7683  141.4503  163.8106 C.3     1  UNL1        0.1742
     21 O         145.5289  141.7674  162.3642 O.3     1  UNL1       -0.3496
@<TRIPOS>BOND
     1    20    21    1
     2    21    19    1
     3    14    19    1
     4    14    15    1
     5    15    16    1
     6    16    17    1
     7    17    18    1
     8    18     1    1
     9     1     2    1
    10     2     3    1
    11     3     4    1
    12     4     7    1
    13     7     8   ar
    14     8     9   ar
    15     9    10   ar
    16    10    11   ar
    17    11    12    1
    18    11    13   ar
    19     4     5   am
    20     5     6    2
    21    18    14    1
    22     5     1   am
    23    13     7   ar
@<TRIPOS>MOLECULE
*****
 21 23 0 0 0
SMALL
GASTEIGER

@<TRIPOS>ATOM
      1 N         140.3452  140.6868  163.9146 N.am    1  UNL1       -0.2035
      2 C         141.5074  141.5239  163.4686 C.3     1  UNL1        0.1350
      3 C         142.0612  142.2269  164.6724 C.3     1  UNL1        0.1229
      4 N         141.2414  141.8244  165.8623 N.am    1  UNL1       -0.2403
      5 C         140.1809  140.8725  165.3939 C.2     1  UNL1        0.3244
      6 O         139.1389  140.2208  166.2539 O.2     1  UNL1       -0.2507
      7 C         141.4461  142.2916  167.2729 C.ar    1  UNL1        0.0562
      8 C         140.3159  142.9328  168.0221 C.ar    1  UNL1        0.0150
      9 C         140.5206  143.4000  169.4327 C.ar    1  UNL1        0.0021
     10 C         141.8557  143.2260  170.0940 C.ar    1  UNL1        0.0115
     11 C         142.9860  142.5849  169.3448 C.ar    1  UNL1        0.0589
     12 CL        144.3210  142.4109  170.0062 Cl      1  UNL1       -0.0822
     13 C         142.7812  142.1177  167.9343 C.ar    1  UNL1        0.0263
     14 C         139.7686  138.3834  162.6871 C.3     1  UNL1        0.1056
     15 C         138.6670  137.9082  161.7868 C.3     1  UNL1        0.0217
     16 C         137.7141  139.0478  161.5789 C.3     1  UNL1        0.0206
     17 C         138.2268  140.2274  162.3507 C.3     1  UNL1        0.0923
     18 N         139.4965  139.8168  163.0355 N.3     1  UNL1       -0.2003
     19 C         140.9372  137.5685  163.1565 C.3     1  UNL1        0.1598
     20 C         142.4646  138.0766  165.1957 C.3     1  UNL1        0.1742
     21 O         141.2279  137.4498  164.6233 O.3     1  UNL1       -0.3496
@<TRIPOS>BOND
     1    20    21    1
     2    21    19    1
     3    14    19    1
     4    14    15    1
     5    15    16    1
     6    16    17    1
     7    17    18    1
     8    18     1    1
     9     1     2    1
    10     2     3    1
    11     3     4    1
    12     4     7    1
    13     7     8   ar
    14     8     9   ar
    15     9    10   ar
    16    10    11   ar
    17    11    12    1
    18    11    13   ar
    19     4     5   am
    20     5     6    2
    21    18    14    1
    22     5     1   am
    23    13     7   ar
@<TRIPOS>MOLECULE
*****
 21 23 0 0 0
SMALL
GASTEIGER

@<TRIPOS>ATOM
      1 N         142.3213  141.6435  167.1651 N.am    1  UNL1       -0.2035
      2 C         143.3915  142.2726  166.3230 C.3     1  UNL1        0.1350
      3 C         142.7240  143.0138  165.2027 C.3     1  UNL1        0.1229
      4 N         141.2413  142.8428  165.3524 N.am    1  UNL1       -0.2403
      5 C         140.9925  141.9960  166.5652 C.2     1  UNL1        0.3244
      6 O         139.6504  141.5754  167.0866 O.2     1  UNL1       -0.2507
      7 C         140.1917  143.4178  164.4481 C.ar    1  UNL1        0.0562
      8 C         138.8323  142.7874  164.3810 C.ar    1  UNL1        0.0150
      9 C         137.7827  143.3624  163.4767 C.ar    1  UNL1        0.0021
     10 C         138.0926  144.5678  162.6395 C.ar    1  UNL1        0.0115
     11 C         139.4520  145.1982  162.7066 C.ar    1  UNL1        0.0589
     12 CL        139.7618  146.4037  161.8694 Cl      1  UNL1       -0.0822
     13 C         140.5015  144.6233  163.6109 C.ar    1  UNL1        0.0263
     14 C         142.9209  141.3199  169.7498 C.3     1  UNL1        0.1056
     15 C         143.0347  140.1431  170.6729 C.3     1  UNL1        0.0217
     16 C         142.7256  138.9045  169.8853 C.3     1  UNL1        0.0206
     17 C         142.4207  139.3158  168.4754 C.3     1  UNL1        0.0923
     18 N         142.5414  140.8086  168.3916 N.3     1  UNL1       -0.2003
     19 C         143.1468  142.7559  170.1198 C.3     1  UNL1        0.1598
     20 C         140.7091  143.6134  169.8516 C.3     1  UNL1        0.1742
     21 O         142.0028  143.5928  170.6105 O.3     1  UNL1       -0.3496
@<TRIPOS>BOND
     1    20    21    1
     2    21    19    1
     3    14    19    1
     4    14    15    1
     5    15    16    1
     6    16    17    1
     7    17    18    1
     8    18     1    1
     9     1     2    1
    10     2     3    1
    11     3     4    1
    12     4     7    1
    13     7     8   ar
    14     8     9   ar
    15     9    10   ar
    16    10    11   ar
    17    11    12    1
    18    11    13   ar
    19     4     5   am
    20     5     6    2
    21    18    14    1
    22     5     1   am
    23    13     7   ar
@<TRIPOS>MOLECULE
*****
 21 23 0 0 0
SMALL
GASTEIGER

@<TRIPOS>ATOM
      1 N         140.8960  140.5717  163.4259 N.am    1  UNL1       -0.2035
      2 C         142.3268  140.7072  163.8557 C.3     1  UNL1        0.1350
      3 C         142.3441  140.9762  165.3313 C.3     1  UNL1        0.1229
      4 N         140.9240  141.0070  165.8135 N.am    1  UNL1       -0.2403
      5 C         140.0291  140.7570  164.6359 C.2     1  UNL1        0.3244
      6 O         138.5304  140.7020  164.6635 O.2     1  UNL1       -0.2507
      7 C         140.4773  141.2458  167.2254 C.ar    1  UNL1        0.0562
      8 C         139.7908  140.1529  167.9899 C.ar    1  UNL1        0.0150
      9 C         139.3441  140.3918  169.4017 C.ar    1  UNL1        0.0021
     10 C         139.5839  141.7235  170.0491 C.ar    1  UNL1        0.0115
     11 C         140.2704  142.8163  169.2847 C.ar    1  UNL1        0.0589
     12 CL        140.5102  144.1480  169.9321 Cl      1  UNL1       -0.0822
     13 C         140.7171  142.5774  167.8728 C.ar    1  UNL1        0.0263
     14 C         139.8344  139.0083  161.5356 C.3     1  UNL1        0.1056
     15 C         139.4929  139.1806  160.0851 C.3     1  UNL1        0.0217
     16 C         139.8639  140.5776  159.6843 C.3     1  UNL1        0.0206
     17 C         140.4347  141.2688  160.8870 C.3     1  UNL1        0.0923
     18 N         140.4164  140.2989  162.0311 N.3     1  UNL1       -0.2003
     19 C         139.6297  137.7640  162.3478 C.3     1  UNL1        0.1598
     20 C         141.1762  137.0771  164.3193 C.3     1  UNL1        0.1742
     21 O         140.8143  137.0031  162.8655 O.3     1  UNL1       -0.3496
@<TRIPOS>BOND
     1    20    21    1
     2    21    19    1
     3    14    19    1
     4    14    15    1
     5    15    16    1
     6    16    17    1
     7    17    18    1
     8    18     1    1
     9     1     2    1
    10     2     3    1
    11     3     4    1
    12     4     7    1
    13     7     8   ar
    14     8     9   ar
    15     9    10   ar
    16    10    11   ar
    17    11    12    1
    18    11    13   ar
    19     4     5   am
    20     5     6    2
    21    18    14    1
    22     5     1   am
    23    13     7   ar
@<TRIPOS>MOLECULE
*****
 21 23 0 0 0
SMALL
GASTEIGER

@<TRIPOS>ATOM
      1 N         140.2935  140.6780  163.3297 N.am    1  UNL1       -0.2035
      2 C         141.7434  140.9623  163.5888 C.3     1  UNL1        0.1350
      3 C         141.9076  141.2349  165.0547 C.3     1  UNL1        0.1229
      4 N         140.5592  141.1191  165.7016 N.am    1  UNL1       -0.2403
      5 C         139.5617  140.7748  164.6355 C.2     1  UNL1        0.3244
      6 O         138.0906  140.5645  164.8394 O.2     1  UNL1       -0.2507
      7 C         140.2607  141.3133  167.1587 C.ar    1  UNL1        0.0562
      8 C         139.6822  140.1868  167.9625 C.ar    1  UNL1        0.0150
      9 C         139.3837  140.3811  169.4195 C.ar    1  UNL1        0.0021
     10 C         139.6638  141.7020  170.0729 C.ar    1  UNL1        0.0115
     11 C         140.2423  142.8285  169.2691 C.ar    1  UNL1        0.0589
     12 CL        140.5224  144.1494  169.9224 Cl      1  UNL1       -0.0822
     13 C         140.5408  142.6342  167.8120 C.ar    1  UNL1        0.0263
     14 C         139.1558  141.3462  161.0052 C.3     1  UNL1        0.1056
     15 C         138.6391  140.5859  159.8198 C.3     1  UNL1        0.0217
     16 C         138.8468  139.1234  160.0808 C.3     1  UNL1        0.0206
     17 C         139.4919  138.9799  161.4274 C.3     1  UNL1        0.0923
     18 N         139.6828  140.3537  161.9986 N.3     1  UNL1       -0.2003
     19 C         139.1469  142.8373  161.1683 C.3     1  UNL1        0.1598
     20 C         137.7506  143.7514  163.1594 C.3     1  UNL1        0.1742
     21 O         137.9200  143.5278  161.6859 O.3     1  UNL1       -0.3496
@<TRIPOS>BOND
     1    20    21    1
     2    21    19    1
     3    14    19    1
     4    14    15    1
     5    15    16    1
     6    16    17    1
     7    17    18    1
     8    18     1    1
     9     1     2    1
    10     2     3    1
    11     3     4    1
    12     4     7    1
    13     7     8   ar
    14     8     9   ar
    15     9    10   ar
    16    10    11   ar
    17    11    12    1
    18    11    13   ar
    19     4     5   am
    20     5     6    2
    21    18    14    1
    22     5     1   am
    23    13     7   ar
@<TRIPOS>MOLECULE
*****
 21 23 0 0 0
SMALL
GASTEIGER

@<TRIPOS>ATOM
      1 N         141.1980  142.1501  166.9944 N.am    1  UNL1       -0.2035
      2 C         142.6918  142.2433  166.8955 C.3     1  UNL1        0.1350
      3 C         143.0319  142.8342  165.5594 C.3     1  UNL1        0.1229
      4 N         141.7483  143.1060  164.8325 N.am    1  UNL1       -0.2403
      5 C         140.6149  142.6833  165.7194 C.2     1  UNL1        0.3244
      6 O         139.1547  142.7772  165.3892 O.2     1  UNL1       -0.2507
      7 C         141.6205  143.6970  163.4597 C.ar    1  UNL1        0.0562
      8 C         142.4543  143.1632  162.3328 C.ar    1  UNL1        0.0150
      9 C         142.3265  143.7542  160.9601 C.ar    1  UNL1        0.0021
     10 C         141.3649  144.8788  160.7142 C.ar    1  UNL1        0.0115
     11 C         140.5311  145.4126  161.8411 C.ar    1  UNL1        0.0589
     12 CL        139.5695  146.5373  161.5952 Cl      1  UNL1       -0.0822
     13 C         140.6589  144.8216  163.2138 C.ar    1  UNL1        0.0263
     14 C         140.1227  142.3571  169.4328 C.3     1  UNL1        0.1056
     15 C         139.3268  141.4481  170.3217 C.3     1  UNL1        0.0217
     16 C         139.1355  140.1464  169.6014 C.3     1  UNL1        0.0206
     17 C         139.8131  140.2509  168.2673 C.3     1  UNL1        0.0923
     18 N         140.4233  141.6172  168.1631 N.3     1  UNL1       -0.2003
     19 C         140.5441  143.7598  169.7567 C.3     1  UNL1        0.1598
     20 C         142.8436  142.8842  170.5908 C.3     1  UNL1        0.1742
     21 O         141.8738  144.0130  170.4033 O.3     1  UNL1       -0.3496
@<TRIPOS>BOND
     1    20    21    1
     2    21    19    1
     3    14    19    1
     4    14    15    1
     5    15    16    1
     6    16    17    1
     7    17    18    1
     8    18     1    1
     9     1     2    1
    10     2     3    1
    11     3     4    1
    12     4     7    1
    13     7     8   ar
    14     8     9   ar
    15     9    10   ar
    16    10    11   ar
    17    11    12    1
    18    11    13   ar
    19     4     5   am
    20     5     6    2
    21    18    14    1
    22     5     1   am
    23    13     7   ar
