@<TRIPOS>MOLECULE
*****
 37 41 0 0 0
SMALL
GASTEIGER

@<TRIPOS>ATOM
      1 C         138.2059  142.7161  161.8863 C.ar    1  UNL1        0.1725
      2 C         138.4418  141.3084  162.3475 C.ar    1  UNL1        0.0428
      3 C         138.9043  141.0462  163.7501 C.ar    1  UNL1        0.0340
      4 C         139.1402  139.6384  164.2112 C.ar    1  UNL1        0.0477
      5 C         139.6027  139.3763  165.6138 C.ar    1  UNL1        0.0365
      6 C         139.8293  140.5219  166.5553 C.ar    1  UNL1        0.1169
      7 N         139.5934  141.9296  166.0942 N.ar    1  UNL1       -0.2421
      8 C         139.1309  142.1917  164.6915 C.ar    1  UNL1        0.0858
      9 C         138.8950  143.5994  164.2304 C.ar    1  UNL1        0.0592
     10 C         138.4325  143.8616  162.8278 C.ar    1  UNL1        0.1737
     11 C         140.2918  140.2597  167.9579 C.ar    1  UNL1        0.1624
     12 C         139.4310  140.2684  169.1863 C.ar    1  UNL1        0.0418
     13 C         140.3035  139.9568  170.3660 C.ar    1  UNL1        0.0361
     14 C         141.7036  139.7556  169.8667 C.ar    1  UNL1        0.1234
     15 C         142.9007  139.4251  170.7080 C.3     1  UNL1        0.0725
     16 O         141.6964  139.9427  168.3784 O.2     1  UNL1       -0.4562
     17 C         138.5860  142.5417  159.3221 C.3     1  UNL1        0.2526
     18 O         137.7434  142.9783  160.4837 O.3     1  UNL1       -0.4684
     19 N         138.9135  138.4929  163.2697 N.pl3   1  UNL1       -0.3334
     20 H         138.2050  137.8353  163.4562 H       1  UNL1        0.1468
     21 C         139.7664  138.3494  162.0441 C.3     1  UNL1        0.0798
     22 C         141.2358  138.0808  162.1801 C.3     1  UNL1        0.0415
     23 C         142.0886  137.9373  160.9546 C.3     1  UNL1        0.0952
     24 N         141.4720  138.0624  159.5929 N.am    1  UNL1       -0.2777
     25 C         142.3248  137.9189  158.3673 C.3     1  UNL1        0.1148
     26 C         140.0025  138.3310  159.4569 C.2     1  UNL1        0.2274
     27 O         139.3859  138.4561  158.0952 O.2     1  UNL1       -0.2748
     28 C         139.1497  138.4745  160.6825 C.3     1  UNL1        0.1047
     29 O         138.1966  145.2694  162.3666 O.3     1  UNL1       -0.4723
     30 C         139.3461  146.1026  161.8825 C.3     1  UNL1        0.2070
     31 C         140.6253  145.4427  161.4601 C.3     1  UNL1        0.0646
     32 C         141.7304  145.2435  162.4545 C.3     1  UNL1        0.0759
     33 N         142.0919  143.8598  162.9069 N.3     1  UNL1       -0.2726
     34 C         141.9752  142.6067  162.0907 C.3     1  UNL1        0.0721
     35 C         142.4447  141.4587  162.9342 C.3     1  UNL1        0.0188
     36 C         142.8515  142.0022  164.2719 C.3     1  UNL1        0.0188
     37 C         142.6334  143.4862  164.2549 C.3     1  UNL1        0.0721
@<TRIPOS>BOND
     1    17    18    1
     2    18     1    1
     3     1     2   ar
     4     2     3   ar
     5     3     4   ar
     6     4    19    1
     7    19    21    1
     8    21    22    1
     9    22    23    1
    10    23    24    1
    11    24    25    1
    12    24    26   am
    13    26    27    2
    14    26    28    1
    15     4     5   ar
    16     5     6   ar
    17     6    11    1
    18    11    12   ar
    19    12    13   ar
    20    13    14   ar
    21    14    15    1
    22    14    16   ar
    23     6     7   ar
    24     7     8   ar
    25     8     9   ar
    26     9    10   ar
    27    10    29    1
    28    29    30    1
    29    30    31    1
    30    31    32    1
    31    32    33    1
    32    33    34    1
    33    34    35    1
    34    35    36    1
    35    36    37    1
    36    10     1   ar
    37    37    33    1
    38     8     3   ar
    39    28    21    1
    40    16    11   ar
    41    19    20    1
@<TRIPOS>MOLECULE
*****
 37 41 0 0 0
SMALL
GASTEIGER

@<TRIPOS>ATOM
      1 C         139.4973  143.2253  160.3118 C.ar    1  UNL1        0.1725
      2 C         140.1450  141.9642  159.8220 C.ar    1  UNL1        0.0428
      3 C         141.4735  142.0238  159.1283 C.ar    1  UNL1        0.0340
      4 C         142.1212  140.7625  158.6385 C.ar    1  UNL1        0.0477
      5 C         143.4498  140.8222  157.9447 C.ar    1  UNL1        0.0365
      6 C         144.1307  142.1432  157.7408 C.ar    1  UNL1        0.1169
      7 N         143.4831  143.4043  158.2305 N.ar    1  UNL1       -0.2421
      8 C         142.1545  143.3447  158.9243 C.ar    1  UNL1        0.0858
      9 C         141.5068  144.6058  159.4141 C.ar    1  UNL1        0.0592
     10 C         140.1782  144.5462  160.1078 C.ar    1  UNL1        0.1737
     11 C         145.4593  142.2028  157.0470 C.ar    1  UNL1        0.1624
     12 C         146.7316  142.7489  157.6242 C.ar    1  UNL1        0.0418
     13 C         147.8075  142.6105  156.5881 C.ar    1  UNL1        0.0361
     14 C         147.2001  141.9788  155.3707 C.ar    1  UNL1        0.1234
     15 C         147.9180  141.6559  154.0939 C.3     1  UNL1        0.0725
     16 O         145.7489  141.7269  155.6543 O.2     1  UNL1       -0.4562
     17 C         137.9291  142.1475  162.0807 C.3     1  UNL1        0.2526
     18 O         138.1687  143.1657  161.0056 O.3     1  UNL1       -0.4684
     19 N         141.4403  139.4417  158.8425 N.pl3   1  UNL1       -0.3334
     20 H         141.0379  138.9719  158.0766 H       1  UNL1        0.1468
     21 C         141.3724  138.8367  160.2134 C.3     1  UNL1        0.0798
     22 C         142.6340  138.5803  160.9833 C.3     1  UNL1        0.0415
     23 C         142.5661  137.9753  162.3542 C.3     1  UNL1        0.0952
     24 N         141.2368  137.6267  162.9552 N.am    1  UNL1       -0.2777
     25 C         141.1689  137.0216  164.3261 C.3     1  UNL1        0.1148
     26 C         139.9752  137.8831  162.1852 C.2     1  UNL1        0.2274
     27 O         138.6458  137.5344  162.7863 O.2     1  UNL1       -0.2748
     28 C         140.0430  138.4881  160.8144 C.3     1  UNL1        0.1047
     29 O         139.5306  145.8074  160.5976 O.3     1  UNL1       -0.4723
     30 C         139.8098  146.3039  161.9852 C.3     1  UNL1        0.2070
     31 C         140.2381  145.3423  163.0539 C.3     1  UNL1        0.0646
     32 C         141.6775  145.2765  163.4705 C.3     1  UNL1        0.0759
     33 N         142.5565  144.1737  162.9594 N.3     1  UNL1       -0.2726
     34 C         143.9687  144.3237  162.4768 C.3     1  UNL1        0.0721
     35 C         144.4625  142.9699  162.0604 C.3     1  UNL1        0.0188
     36 C         143.3555  141.9831  162.2857 C.3     1  UNL1        0.0188
     37 C         142.1775  142.7271  162.8414 C.3     1  UNL1        0.0721
@<TRIPOS>BOND
     1    17    18    1
     2    18     1    1
     3     1     2   ar
     4     2     3   ar
     5     3     4   ar
     6     4    19    1
     7    19    21    1
     8    21    22    1
     9    22    23    1
    10    23    24    1
    11    24    25    1
    12    24    26   am
    13    26    27    2
    14    26    28    1
    15     4     5   ar
    16     5     6   ar
    17     6    11    1
    18    11    12   ar
    19    12    13   ar
    20    13    14   ar
    21    14    15    1
    22    14    16   ar
    23     6     7   ar
    24     7     8   ar
    25     8     9   ar
    26     9    10   ar
    27    10    29    1
    28    29    30    1
    29    30    31    1
    30    31    32    1
    31    32    33    1
    32    33    34    1
    33    34    35    1
    34    35    36    1
    35    36    37    1
    36    10     1   ar
    37    37    33    1
    38     8     3   ar
    39    28    21    1
    40    16    11   ar
    41    19    20    1
@<TRIPOS>MOLECULE
*****
 37 41 0 0 0
SMALL
GASTEIGER

@<TRIPOS>ATOM
      1 C         142.4289  143.4806  162.0486 C.ar    1  UNL1        0.1725
      2 C         143.0056  142.1292  162.3504 C.ar    1  UNL1        0.0428
      3 C         142.8838  141.5528  163.7298 C.ar    1  UNL1        0.0340
      4 C         143.4605  140.2014  164.0316 C.ar    1  UNL1        0.0477
      5 C         143.3387  139.6250  165.4111 C.ar    1  UNL1        0.0365
      6 C         142.6401  140.4000  166.4888 C.ar    1  UNL1        0.1169
      7 N         142.0634  141.7514  166.1870 N.ar    1  UNL1       -0.2421
      8 C         142.1853  142.3278  164.8075 C.ar    1  UNL1        0.0858
      9 C         141.6086  143.6792  164.5057 C.ar    1  UNL1        0.0592
     10 C         141.7304  144.2556  163.1263 C.ar    1  UNL1        0.1737
     11 C         142.5183  139.8236  167.8682 C.ar    1  UNL1        0.1624
     12 C         141.6127  140.3220  168.9553 C.ar    1  UNL1        0.0418
     13 C         141.8154  139.4540  170.1617 C.ar    1  UNL1        0.0361
     14 C         142.8463  138.4192  169.8204 C.ar    1  UNL1        0.1234
     15 C         143.3536  137.3447  170.7357 C.3     1  UNL1        0.0725
     16 O         143.2807  138.6476  168.4029 O.2     1  UNL1       -0.4562
     17 C         143.1068  143.2223  159.5539 C.3     1  UNL1        0.2526
     18 O         142.5507  144.0570  160.6691 O.3     1  UNL1       -0.4684
     19 N         144.1590  139.4264  162.9539 N.pl3   1  UNL1       -0.3334
     20 H         145.0902  139.1339  163.0827 H       1  UNL1        0.1468
     21 C         143.4388  139.0970  161.6800 C.3     1  UNL1        0.0798
     22 C         142.0955  138.4312  161.7284 C.3     1  UNL1        0.0415
     23 C         141.3753  138.1019  160.4546 C.3     1  UNL1        0.0952
     24 N         141.9983  138.4384  159.1323 N.am    1  UNL1       -0.2777
     25 C         141.2780  138.1091  157.8583 C.3     1  UNL1        0.1148
     26 C         143.3415  139.1042  159.0838 C.2     1  UNL1        0.2274
     27 O         143.9645  139.4407  157.7614 O.2     1  UNL1       -0.2748
     28 C         144.0618  139.4335  160.3576 C.3     1  UNL1        0.1047
     29 O         141.1536  145.6071  162.8245 O.3     1  UNL1       -0.4723
     30 C         139.7886  145.7205  162.2132 C.3     1  UNL1        0.2070
     31 C         138.6213  145.0270  162.8508 C.3     1  UNL1        0.0646
     32 C         138.1755  143.6880  162.3426 C.3     1  UNL1        0.0759
     33 N         138.5391  142.4417  163.0939 N.3     1  UNL1       -0.2726
     34 C         139.3683  141.3068  162.5701 C.3     1  UNL1        0.0721
     35 C         139.4791  140.2752  163.6534 C.3     1  UNL1        0.0188
     36 C         138.7182  140.7724  164.8467 C.3     1  UNL1        0.0188
     37 C         138.1373  142.1114  164.5008 C.3     1  UNL1        0.0721
@<TRIPOS>BOND
     1    17    18    1
     2    18     1    1
     3     1     2   ar
     4     2     3   ar
     5     3     4   ar
     6     4    19    1
     7    19    21    1
     8    21    22    1
     9    22    23    1
    10    23    24    1
    11    24    25    1
    12    24    26   am
    13    26    27    2
    14    26    28    1
    15     4     5   ar
    16     5     6   ar
    17     6    11    1
    18    11    12   ar
    19    12    13   ar
    20    13    14   ar
    21    14    15    1
    22    14    16   ar
    23     6     7   ar
    24     7     8   ar
    25     8     9   ar
    26     9    10   ar
    27    10    29    1
    28    29    30    1
    29    30    31    1
    30    31    32    1
    31    32    33    1
    32    33    34    1
    33    34    35    1
    34    35    36    1
    35    36    37    1
    36    10     1   ar
    37    37    33    1
    38     8     3   ar
    39    28    21    1
    40    16    11   ar
    41    19    20    1
@<TRIPOS>MOLECULE
*****
 37 41 0 0 0
SMALL
GASTEIGER

@<TRIPOS>ATOM
      1 C         143.4118  142.9643  160.5176 C.ar    1  UNL1        0.1725
      2 C         143.7164  141.5125  160.7397 C.ar    1  UNL1        0.0428
      3 C         143.1932  140.4816  159.7839 C.ar    1  UNL1        0.0340
      4 C         143.4979  139.0297  160.0061 C.ar    1  UNL1        0.0477
      5 C         142.9747  137.9988  159.0503 C.ar    1  UNL1        0.0365
      6 C         142.1469  138.4198  157.8723 C.ar    1  UNL1        0.1169
      7 N         141.8423  139.8716  157.6502 N.ar    1  UNL1       -0.2421
      8 C         142.3655  140.9025  158.6060 C.ar    1  UNL1        0.0858
      9 C         142.0609  142.3543  158.3838 C.ar    1  UNL1        0.0592
     10 C         142.5840  143.3852  159.3396 C.ar    1  UNL1        0.1737
     11 C         141.6237  137.3888  156.9166 C.ar    1  UNL1        0.1624
     12 C         140.4094  137.5284  156.0470 C.ar    1  UNL1        0.0418
     13 C         140.2582  136.2632  155.2555 C.ar    1  UNL1        0.0361
     14 C         141.3790  135.3417  155.6359 C.ar    1  UNL1        0.1234
     15 C         141.6145  133.9661  155.0863 C.3     1  UNL1        0.0725
     16 O         142.2229  136.0374  156.6625 O.2     1  UNL1       -0.4562
     17 C         144.2529  143.6130  162.8885 C.3     1  UNL1        0.2526
     18 O         143.9350  143.9952  161.4733 O.3     1  UNL1       -0.4684
     19 N         144.3257  138.6088  161.1840 N.pl3   1  UNL1       -0.3334
     20 H         145.2271  138.2382  161.0450 H       1  UNL1        0.1468
     21 C         143.7800  138.7524  162.5739 C.3     1  UNL1        0.0798
     22 C         144.5541  139.5144  163.6085 C.3     1  UNL1        0.0415
     23 C         144.0085  139.6581  164.9983 C.3     1  UNL1        0.0952
     24 N         142.6889  139.0398  165.3536 N.am    1  UNL1       -0.2777
     25 C         142.1432  139.1835  166.7435 C.3     1  UNL1        0.1148
     26 C         141.9148  138.2779  164.3190 C.2     1  UNL1        0.2274
     27 O         140.5951  137.6596  164.6744 O.2     1  UNL1       -0.2748
     28 C         142.4604  138.1342  162.9292 C.3     1  UNL1        0.1047
     29 O         142.2794  144.8371  159.1174 O.3     1  UNL1       -0.4723
     30 C         140.9288  145.3832  159.4747 C.3     1  UNL1        0.2070
     31 C         140.4862  145.4113  160.9076 C.3     1  UNL1        0.0646
     32 C         139.8039  144.2166  161.5053 C.3     1  UNL1        0.0759
     33 N         139.2137  144.3007  162.8817 N.3     1  UNL1       -0.2726
     34 C         139.9319  144.7381  164.1238 C.3     1  UNL1        0.0721
     35 C         138.9637  144.6699  165.2675 C.3     1  UNL1        0.0188
     36 C         137.6470  144.1903  164.7322 C.3     1  UNL1        0.0188
     37 C         137.8015  143.9622  163.2578 C.3     1  UNL1        0.0721
@<TRIPOS>BOND
     1    17    18    1
     2    18     1    1
     3     1     2   ar
     4     2     3   ar
     5     3     4   ar
     6     4    19    1
     7    19    21    1
     8    21    22    1
     9    22    23    1
    10    23    24    1
    11    24    25    1
    12    24    26   am
    13    26    27    2
    14    26    28    1
    15     4     5   ar
    16     5     6   ar
    17     6    11    1
    18    11    12   ar
    19    12    13   ar
    20    13    14   ar
    21    14    15    1
    22    14    16   ar
    23     6     7   ar
    24     7     8   ar
    25     8     9   ar
    26     9    10   ar
    27    10    29    1
    28    29    30    1
    29    30    31    1
    30    31    32    1
    31    32    33    1
    32    33    34    1
    33    34    35    1
    34    35    36    1
    35    36    37    1
    36    10     1   ar
    37    37    33    1
    38     8     3   ar
    39    28    21    1
    40    16    11   ar
    41    19    20    1
@<TRIPOS>MOLECULE
*****
 37 41 0 0 0
SMALL
GASTEIGER

@<TRIPOS>ATOM
      1 C         141.5928  138.5680  165.1130 C.ar    1  UNL1        0.1725
      2 C         142.7079  139.0576  164.2373 C.ar    1  UNL1        0.0428
      3 C         142.7148  138.7241  162.7749 C.ar    1  UNL1        0.0340
      4 C         143.8300  139.2137  161.8992 C.ar    1  UNL1        0.0477
      5 C         143.8369  138.8802  160.4368 C.ar    1  UNL1        0.0365
      6 C         142.7286  138.0571  159.8500 C.ar    1  UNL1        0.1169
      7 N         141.6135  137.5675  160.7256 N.ar    1  UNL1       -0.2421
      8 C         141.6066  137.9010  162.1881 C.ar    1  UNL1        0.0858
      9 C         140.4915  137.4114  163.0637 C.ar    1  UNL1        0.0592
     10 C         140.4846  137.7449  164.5262 C.ar    1  UNL1        0.1737
     11 C         142.7355  137.7235  158.3876 C.ar    1  UNL1        0.1624
     12 C         142.2921  138.6269  157.2751 C.ar    1  UNL1        0.0418
     13 C         142.4696  137.8897  155.9808 C.ar    1  UNL1        0.0361
     14 C         143.0227  136.5309  156.2933 C.ar    1  UNL1        0.1234
     15 C         143.3534  135.4625  155.2939 C.3     1  UNL1        0.0725
     16 O         143.1870  136.4282  157.7808 O.2     1  UNL1       -0.4562
     17 C         142.8806  139.1142  167.3023 C.3     1  UNL1        0.2526
     18 O         141.5859  138.9015  166.5754 O.3     1  UNL1       -0.4684
     19 N         144.9382  140.0368  162.4860 N.pl3   1  UNL1       -0.3334
     20 H         145.8324  139.6433  162.6076 H       1  UNL1        0.1468
     21 C         144.6840  141.4596  162.8876 C.3     1  UNL1        0.0798
     22 C         144.3181  142.4781  161.8489 C.3     1  UNL1        0.0415
     23 C         144.0639  143.9008  162.2504 C.3     1  UNL1        0.0952
     24 N         144.1757  144.3050  163.6906 N.am    1  UNL1       -0.2777
     25 C         143.9215  145.7278  164.0922 C.3     1  UNL1        0.1148
     26 C         144.5415  143.2865  164.7292 C.2     1  UNL1        0.2274
     27 O         144.6533  143.6908  166.1695 O.2     1  UNL1       -0.2748
     28 C         144.7957  141.8638  164.3277 C.3     1  UNL1        0.1047
     29 O         139.3694  137.2553  165.4018 O.3     1  UNL1       -0.4723
     30 C         138.3345  138.2168  165.9063 C.3     1  UNL1        0.2070
     31 C         138.0890  139.5048  165.1777 C.3     1  UNL1        0.0646
     32 C         138.6922  140.7807  165.6859 C.3     1  UNL1        0.0759
     33 N         139.4859  141.6554  164.7613 N.3     1  UNL1       -0.2726
     34 C         139.8711  141.3256  163.3496 C.3     1  UNL1        0.0721
     35 C         140.6571  142.4798  162.8019 C.3     1  UNL1        0.0188
     36 C         140.7577  143.5230  163.8751 C.3     1  UNL1        0.0188
     37 C         140.0339  143.0134  165.0860 C.3     1  UNL1        0.0721
@<TRIPOS>BOND
     1    17    18    1
     2    18     1    1
     3     1     2   ar
     4     2     3   ar
     5     3     4   ar
     6     4    19    1
     7    19    21    1
     8    21    22    1
     9    22    23    1
    10    23    24    1
    11    24    25    1
    12    24    26   am
    13    26    27    2
    14    26    28    1
    15     4     5   ar
    16     5     6   ar
    17     6    11    1
    18    11    12   ar
    19    12    13   ar
    20    13    14   ar
    21    14    15    1
    22    14    16   ar
    23     6     7   ar
    24     7     8   ar
    25     8     9   ar
    26     9    10   ar
    27    10    29    1
    28    29    30    1
    29    30    31    1
    30    31    32    1
    31    32    33    1
    32    33    34    1
    33    34    35    1
    34    35    36    1
    35    36    37    1
    36    10     1   ar
    37    37    33    1
    38     8     3   ar
    39    28    21    1
    40    16    11   ar
    41    19    20    1
@<TRIPOS>MOLECULE
*****
 37 41 0 0 0
SMALL
GASTEIGER

@<TRIPOS>ATOM
      1 C         142.8385  142.3157  161.3834 C.ar    1  UNL1        0.1725
      2 C         142.9090  140.8376  161.6291 C.ar    1  UNL1        0.0428
      3 C         142.8720  139.8825  160.4731 C.ar    1  UNL1        0.0340
      4 C         142.9424  138.4044  160.7189 C.ar    1  UNL1        0.0477
      5 C         142.9055  137.4493  159.5629 C.ar    1  UNL1        0.0365
      6 C         142.7981  137.9723  158.1610 C.ar    1  UNL1        0.1169
      7 N         142.7277  139.4503  157.9153 N.ar    1  UNL1       -0.2421
      8 C         142.7647  140.4054  159.0713 C.ar    1  UNL1        0.0858
      9 C         142.6942  141.8835  158.8256 C.ar    1  UNL1        0.0592
     10 C         142.7312  142.8386  159.9816 C.ar    1  UNL1        0.1737
     11 C         142.7612  137.0172  157.0050 C.ar    1  UNL1        0.1624
     12 C         142.9668  137.3712  155.5619 C.ar    1  UNL1        0.0418
     13 C         142.8448  136.1132  154.7541 C.ar    1  UNL1        0.0361
     14 C         142.5639  134.9817  155.6979 C.ar    1  UNL1        0.1234
     15 C         142.3689  133.5440  155.3174 C.3     1  UNL1        0.0725
     16 O         142.5122  135.5404  157.0890 O.2     1  UNL1       -0.4562
     17 C         144.1318  144.0316  162.8438 C.3     1  UNL1        0.2526
     18 O         142.8755  143.2708  162.5394 O.3     1  UNL1       -0.4684
     19 N         143.0498  137.8815  162.1206 N.pl3   1  UNL1       -0.3334
     20 H         143.8803  137.4469  162.4217 H       1  UNL1        0.1468
     21 C         141.8917  138.0207  163.0638 C.3     1  UNL1        0.0798
     22 C         140.5254  137.5634  162.6465 C.3     1  UNL1        0.0415
     23 C         139.3674  137.7026  163.5896 C.3     1  UNL1        0.0952
     24 N         139.5756  138.2990  164.9501 N.am    1  UNL1       -0.2777
     25 C         138.4175  138.4382  165.8933 C.3     1  UNL1        0.1148
     26 C         140.9419  138.7563  165.3674 C.2     1  UNL1        0.2274
     27 O         141.1501  139.3527  166.7279 O.2     1  UNL1       -0.2748
     28 C         142.1000  138.6171  164.4243 C.3     1  UNL1        0.1047
     29 O         142.6608  144.3167  159.7358 O.3     1  UNL1       -0.4723
     30 C         141.3329  144.9771  159.5108 C.3     1  UNL1        0.2070
     31 C         140.4241  145.2491  160.6728 C.3     1  UNL1        0.0646
     32 C         139.6399  144.1291  161.2898 C.3     1  UNL1        0.0759
     33 N         139.1384  144.2517  162.6981 N.3     1  UNL1       -0.2726
     34 C         139.9143  144.7815  163.8673 C.3     1  UNL1        0.0721
     35 C         139.0284  144.7233  165.0763 C.3     1  UNL1        0.0188
     36 C         137.7048  144.1574  164.6543 C.3     1  UNL1        0.0188
     37 C         137.7728  143.8659  163.1845 C.3     1  UNL1        0.0721
@<TRIPOS>BOND
     1    17    18    1
     2    18     1    1
     3     1     2   ar
     4     2     3   ar
     5     3     4   ar
     6     4    19    1
     7    19    21    1
     8    21    22    1
     9    22    23    1
    10    23    24    1
    11    24    25    1
    12    24    26   am
    13    26    27    2
    14    26    28    1
    15     4     5   ar
    16     5     6   ar
    17     6    11    1
    18    11    12   ar
    19    12    13   ar
    20    13    14   ar
    21    14    15    1
    22    14    16   ar
    23     6     7   ar
    24     7     8   ar
    25     8     9   ar
    26     9    10   ar
    27    10    29    1
    28    29    30    1
    29    30    31    1
    30    31    32    1
    31    32    33    1
    32    33    34    1
    33    34    35    1
    34    35    36    1
    35    36    37    1
    36    10     1   ar
    37    37    33    1
    38     8     3   ar
    39    28    21    1
    40    16    11   ar
    41    19    20    1
@<TRIPOS>MOLECULE
*****
 37 41 0 0 0
SMALL
GASTEIGER

@<TRIPOS>ATOM
      1 C         143.2784  142.7243  160.2858 C.ar    1  UNL1        0.1725
      2 C         143.3363  141.3159  160.7987 C.ar    1  UNL1        0.0428
      3 C         143.1287  140.1660  159.8582 C.ar    1  UNL1        0.0340
      4 C         143.1866  138.7576  160.3712 C.ar    1  UNL1        0.0477
      5 C         142.9790  137.6077  159.4307 C.ar    1  UNL1        0.0365
      6 C         142.7135  137.8662  157.9771 C.ar    1  UNL1        0.1169
      7 N         142.6557  139.2745  157.4641 N.ar    1  UNL1       -0.2421
      8 C         142.8632  140.4244  158.4047 C.ar    1  UNL1        0.0858
      9 C         142.8054  141.8328  157.8917 C.ar    1  UNL1        0.0592
     10 C         143.0129  142.9827  158.8323 C.ar    1  UNL1        0.1737
     11 C         142.5059  136.7163  157.0366 C.ar    1  UNL1        0.1624
     12 C         141.3620  136.5553  156.0797 C.ar    1  UNL1        0.0418
     13 C         141.5549  135.2650  155.3395 C.ar    1  UNL1        0.0361
     14 C         142.8181  134.6285  155.8389 C.ar    1  UNL1        0.1234
     15 C         143.3925  133.3241  155.3715 C.3     1  UNL1        0.0725
     16 O         143.4058  135.5254  156.8877 O.2     1  UNL1       -0.4562
     17 C         144.0951  143.6382  162.5765 C.3     1  UNL1        0.2526
     18 O         143.4860  143.8742  161.2263 O.3     1  UNL1       -0.4684
     19 N         143.4521  138.4992  161.8247 N.pl3   1  UNL1       -0.3334
     20 H         144.3783  138.4355  162.1522 H       1  UNL1        0.1468
     21 C         142.3063  138.3377  162.7793 C.3     1  UNL1        0.0798
     22 C         142.5383  138.4568  164.2564 C.3     1  UNL1        0.0415
     23 C         141.3926  138.2954  165.2110 C.3     1  UNL1        0.0952
     24 N         140.0149  138.0148  164.6884 N.am    1  UNL1       -0.2777
     25 C         138.8691  137.8534  165.6430 C.3     1  UNL1        0.1148
     26 C         139.7829  137.8957  163.2113 C.2     1  UNL1        0.2274
     27 O         138.4051  137.6151  162.6887 O.2     1  UNL1       -0.2748
     28 C         140.9286  138.0572  162.2567 C.3     1  UNL1        0.1047
     29 O         142.9550  144.3911  158.3192 O.3     1  UNL1       -0.4723
     30 C         141.7246  145.2200  158.5406 C.3     1  UNL1        0.2070
     31 C         140.5562  144.6441  159.2844 C.3     1  UNL1        0.0646
     32 C         140.2591  145.0991  160.6825 C.3     1  UNL1        0.0759
     33 N         139.2616  144.3528  161.5180 N.3     1  UNL1       -0.2726
     34 C         138.6652  144.8252  162.8107 C.3     1  UNL1        0.0721
     35 C         137.7204  143.7674  163.2992 C.3     1  UNL1        0.0188
     36 C         137.7330  142.6413  162.3084 C.3     1  UNL1        0.0188
     37 C         138.6855  143.0031  161.2076 C.3     1  UNL1        0.0721
@<TRIPOS>BOND
     1    17    18    1
     2    18     1    1
     3     1     2   ar
     4     2     3   ar
     5     3     4   ar
     6     4    19    1
     7    19    21    1
     8    21    22    1
     9    22    23    1
    10    23    24    1
    11    24    25    1
    12    24    26   am
    13    26    27    2
    14    26    28    1
    15     4     5   ar
    16     5     6   ar
    17     6    11    1
    18    11    12   ar
    19    12    13   ar
    20    13    14   ar
    21    14    15    1
    22    14    16   ar
    23     6     7   ar
    24     7     8   ar
    25     8     9   ar
    26     9    10   ar
    27    10    29    1
    28    29    30    1
    29    30    31    1
    30    31    32    1
    31    32    33    1
    32    33    34    1
    33    34    35    1
    34    35    36    1
    35    36    37    1
    36    10     1   ar
    37    37    33    1
    38     8     3   ar
    39    28    21    1
    40    16    11   ar
    41    19    20    1
@<TRIPOS>MOLECULE
*****
 37 41 0 0 0
SMALL
GASTEIGER

@<TRIPOS>ATOM
      1 C         141.2077  138.4265  164.0998 C.ar    1  UNL1        0.1725
      2 C         141.9999  138.8827  162.9105 C.ar    1  UNL1        0.0428
      3 C         141.4274  138.7461  161.5308 C.ar    1  UNL1        0.0340
      4 C         142.2196  139.2022  160.3415 C.ar    1  UNL1        0.0477
      5 C         141.6470  139.0656  158.9618 C.ar    1  UNL1        0.0365
      6 C         140.2823  138.4729  158.7714 C.ar    1  UNL1        0.1169
      7 N         139.4902  138.0167  159.9607 N.ar    1  UNL1       -0.2421
      8 C         140.0627  138.1533  161.3404 C.ar    1  UNL1        0.0858
      9 C         139.2706  137.6972  162.5297 C.ar    1  UNL1        0.0592
     10 C         139.8431  137.8338  163.9094 C.ar    1  UNL1        0.1737
     11 C         139.7098  138.3363  157.3917 C.ar    1  UNL1        0.1624
     12 C         140.0436  137.2604  156.4011 C.ar    1  UNL1        0.0418
     13 C         139.2430  137.5108  155.1576 C.ar    1  UNL1        0.0361
     14 C         138.4144  138.7413  155.3796 C.ar    1  UNL1        0.1234
     15 C         137.4642  139.3540  154.3939 C.3     1  UNL1        0.0725
     16 O         138.7029  139.2514  156.7604 O.2     1  UNL1       -0.4562
     17 C         142.7633  139.6558  165.7788 C.3     1  UNL1        0.2526
     18 O         141.7803  138.5631  165.4795 O.3     1  UNL1       -0.4684
     19 N         143.5842  139.7950  160.5319 N.pl3   1  UNL1       -0.3334
     20 H         144.3806  139.3075  160.2197 H       1  UNL1        0.1468
     21 C         143.7356  141.1305  161.1981 C.3     1  UNL1        0.0798
     22 C         144.7491  141.3140  162.2886 C.3     1  UNL1        0.0415
     23 C         144.9005  142.6494  162.9547 C.3     1  UNL1        0.0952
     24 N         144.0385  143.8012  162.5303 N.am    1  UNL1       -0.2777
     25 C         144.1899  145.1367  163.1964 C.3     1  UNL1        0.1148
     26 C         143.0251  143.6177  161.4397 C.2     1  UNL1        0.2274
     27 O         142.1631  144.7696  161.0153 O.2     1  UNL1       -0.2748
     28 C         142.8737  142.2823  160.7736 C.3     1  UNL1        0.1047
     29 O         139.0509  137.3776  165.0987 O.3     1  UNL1       -0.4723
     30 C         138.3703  138.3848  165.9776 C.3     1  UNL1        0.2070
     31 C         138.1407  139.7811  165.4799 C.3     1  UNL1        0.0646
     32 C         139.1165  140.8684  165.8197 C.3     1  UNL1        0.0759
     33 N         138.8864  142.2648  165.3226 N.3     1  UNL1       -0.2726
     34 C         137.7914  142.7012  164.3951 C.3     1  UNL1        0.0721
     35 C         137.9392  144.1761  164.1650 C.3     1  UNL1        0.0188
     36 C         139.1256  144.6512  164.9503 C.3     1  UNL1        0.0188
     37 C         139.7111  143.4699  165.6657 C.3     1  UNL1        0.0721
@<TRIPOS>BOND
     1    17    18    1
     2    18     1    1
     3     1     2   ar
     4     2     3   ar
     5     3     4   ar
     6     4    19    1
     7    19    21    1
     8    21    22    1
     9    22    23    1
    10    23    24    1
    11    24    25    1
    12    24    26   am
    13    26    27    2
    14    26    28    1
    15     4     5   ar
    16     5     6   ar
    17     6    11    1
    18    11    12   ar
    19    12    13   ar
    20    13    14   ar
    21    14    15    1
    22    14    16   ar
    23     6     7   ar
    24     7     8   ar
    25     8     9   ar
    26     9    10   ar
    27    10    29    1
    28    29    30    1
    29    30    31    1
    30    31    32    1
    31    32    33    1
    32    33    34    1
    33    34    35    1
    34    35    36    1
    35    36    37    1
    36    10     1   ar
    37    37    33    1
    38     8     3   ar
    39    28    21    1
    40    16    11   ar
    41    19    20    1
@<TRIPOS>MOLECULE
*****
 37 41 0 0 0
SMALL
GASTEIGER

@<TRIPOS>ATOM
      1 C         141.9582  138.3351  160.6988 C.ar    1  UNL1        0.1725
      2 C         141.8586  138.0018  159.2397 C.ar    1  UNL1        0.0428
      3 C         142.7688  138.6718  158.2535 C.ar    1  UNL1        0.0340
      4 C         142.6691  138.3385  156.7944 C.ar    1  UNL1        0.0477
      5 C         143.5794  139.0085  155.8082 C.ar    1  UNL1        0.0365
      6 C         144.5893  140.0118  156.2811 C.ar    1  UNL1        0.1169
      7 N         144.6889  140.3451  157.7402 N.ar    1  UNL1       -0.2421
      8 C         143.7786  139.6751  158.7264 C.ar    1  UNL1        0.0858
      9 C         143.8783  140.0083  160.1855 C.ar    1  UNL1        0.0592
     10 C         142.9680  139.3383  161.1717 C.ar    1  UNL1        0.1737
     11 C         145.4995  140.6818  155.2950 C.ar    1  UNL1        0.1624
     12 C         145.2189  140.8896  153.8361 C.ar    1  UNL1        0.0418
     13 C         146.3962  141.5979  153.2340 C.ar    1  UNL1        0.0361
     14 C         147.4043  141.8278  154.3207 C.ar    1  UNL1        0.1234
     15 C         148.7332  142.5050  154.1615 C.3     1  UNL1        0.0725
     16 O         146.8501  141.2616  155.5944 O.2     1  UNL1       -0.4562
     17 C         139.6143  138.0929  161.7932 C.3     1  UNL1        0.2526
     18 O         141.0479  137.6651  161.6850 O.3     1  UNL1       -0.4684
     19 N         141.6593  137.3353  156.3215 N.pl3   1  UNL1       -0.3334
     20 H         140.7727  137.6356  156.0164 H       1  UNL1        0.1468
     21 C         142.0002  135.8745  156.3135 C.3     1  UNL1        0.0798
     22 C         141.2385  134.9315  155.4300 C.3     1  UNL1        0.0415
     23 C         141.5793  133.4708  155.4220 C.3     1  UNL1        0.0952
     24 N         142.6819  132.9531  156.2973 N.am    1  UNL1       -0.2777
     25 C         143.0228  131.4923  156.2893 C.3     1  UNL1        0.1148
     26 C         143.4437  133.8962  157.1807 C.2     1  UNL1        0.2274
     27 O         144.5463  133.3784  158.0561 O.2     1  UNL1       -0.2748
     28 C         143.1028  135.3569  157.1888 C.3     1  UNL1        0.1047
     29 O         143.0677  139.6716  162.6309 O.3     1  UNL1       -0.4723
     30 C         144.2534  139.2115  163.4260 C.3     1  UNL1        0.2070
     31 C         145.1919  140.2175  164.0236 C.3     1  UNL1        0.0646
     32 C         145.5348  141.4659  163.2659 C.3     1  UNL1        0.0759
     33 N         144.6836  142.6918  163.4158 N.3     1  UNL1       -0.2726
     34 C         143.9245  143.0931  164.6457 C.3     1  UNL1        0.0721
     35 C         143.2137  144.3809  164.3521 C.3     1  UNL1        0.0188
     36 C         143.5335  144.7756  162.9406 C.3     1  UNL1        0.0188
     37 C         144.4419  143.7316  162.3620 C.3     1  UNL1        0.0721
@<TRIPOS>BOND
     1    17    18    1
     2    18     1    1
     3     1     2   ar
     4     2     3   ar
     5     3     4   ar
     6     4    19    1
     7    19    21    1
     8    21    22    1
     9    22    23    1
    10    23    24    1
    11    24    25    1
    12    24    26   am
    13    26    27    2
    14    26    28    1
    15     4     5   ar
    16     5     6   ar
    17     6    11    1
    18    11    12   ar
    19    12    13   ar
    20    13    14   ar
    21    14    15    1
    22    14    16   ar
    23     6     7   ar
    24     7     8   ar
    25     8     9   ar
    26     9    10   ar
    27    10    29    1
    28    29    30    1
    29    30    31    1
    30    31    32    1
    31    32    33    1
    32    33    34    1
    33    34    35    1
    34    35    36    1
    35    36    37    1
    36    10     1   ar
    37    37    33    1
    38     8     3   ar
    39    28    21    1
    40    16    11   ar
    41    19    20    1
