@<TRIPOS>MOLECULE
*****
 21 23 0 0 0
SMALL
GASTEIGER

@<TRIPOS>ATOM
      1 C         139.7142  140.4380  165.6227 C.ar    1  UNL1       -0.0144
      2 C         138.8793  139.5762  164.7226 C.ar    1  UNL1        0.0051
      3 S         138.0014  140.4753  163.9036 S.2     1  UNL1       -0.0915
      4 C         138.2938  141.8929  164.2974 C.ar    1  UNL1        0.0288
      5 C         137.7328  143.2016  163.8259 C.ar    1  UNL1        0.0065
      6 C         138.2305  144.4873  164.4168 C.ar    1  UNL1        0.0005
      7 C         139.2890  144.4643  165.4793 C.ar    1  UNL1        0.0000
      8 C         139.8500  143.1555  165.9509 C.ar    1  UNL1        0.0002
      9 C         139.3524  141.8698  165.3599 C.ar    1  UNL1        0.0025
     10 C         141.9983  139.3085  166.1303 C.3     1  UNL1        0.0111
     11 C         140.7323  139.9532  166.6118 C.3     1  UNL1        0.0632
     12 C         140.4846  140.1130  168.0825 C.ar    1  UNL1        0.0698
     13 C         141.4950  140.5399  169.1056 C.ar    1  UNL1        0.0519
     14 S         140.8178  140.5648  170.4438 S.2     1  UNL1       -0.0643
     15 C         139.3888  140.1533  170.2478 C.ar    1  UNL1        0.1341
     16 N         139.1828  139.8740  168.7884 N.ar    1  UNL1       -0.2403
     17 C         138.9159  138.0782  164.6536 C.3     1  UNL1        0.0499
     18 C         138.9051  137.3882  163.3218 C.3     1  UNL1        0.0774
     19 N         139.9514  137.7167  162.2984 N.3     1  UNL1       -0.2700
     20 C         141.4049  137.5627  162.6357 C.3     1  UNL1        0.0897
     21 C         139.5442  138.1992  160.9378 C.3     1  UNL1        0.0897
@<TRIPOS>BOND
     1    11    10    1
     2    11    12    1
     3    12    13   ar
     4    13    14   ar
     5    14    15   ar
     6    15    16   ar
     7    11     1    1
     8     1     2   ar
     9     2    17    1
    10    17    18    1
    11    18    19    1
    12    19    20    1
    13    19    21    1
    14     2     3   ar
    15     3     4   ar
    16     4     5   ar
    17     5     6   ar
    18     6     7   ar
    19     7     8   ar
    20     8     9   ar
    21    16    12   ar
    22     9     1   ar
    23     9     4   ar
@<TRIPOS>MOLECULE
*****
 21 23 0 0 0
SMALL
GASTEIGER

@<TRIPOS>ATOM
      1 C         139.3989  140.8625  165.8555 C.ar    1  UNL1       -0.0144
      2 C         140.3701  141.3844  166.8725 C.ar    1  UNL1        0.0051
      3 S         140.4736  142.8702  166.6949 S.2     1  UNL1       -0.0915
      4 C         139.5662  143.2667  165.5681 C.ar    1  UNL1        0.0288
      5 C         139.2590  144.5972  164.9475 C.ar    1  UNL1        0.0065
      6 C         138.2877  144.6869  163.8080 C.ar    1  UNL1        0.0005
      7 C         137.6234  143.4461  163.2893 C.ar    1  UNL1        0.0000
      8 C         137.9306  142.1155  163.9099 C.ar    1  UNL1        0.0002
      9 C         138.9020  142.0258  165.0493 C.ar    1  UNL1        0.0025
     10 C         137.9843  138.8135  166.5977 C.3     1  UNL1        0.0111
     11 C         138.9953  139.4290  165.6761 C.3     1  UNL1        0.0632
     12 C         139.6026  138.6110  164.5753 C.ar    1  UNL1        0.0698
     13 C         139.1726  138.6088  163.1383 C.ar    1  UNL1        0.0519
     14 S         140.0508  137.6478  162.3931 S.2     1  UNL1       -0.0643
     15 C         141.0236  137.0561  163.3695 C.ar    1  UNL1        0.1341
     16 N         140.7466  137.6514  164.7183 N.ar    1  UNL1       -0.2403
     17 C         141.1083  140.5644  167.8887 C.3     1  UNL1        0.0499
     18 C         141.1451  141.0027  169.3227 C.3     1  UNL1        0.0774
     19 N         139.8756  141.3913  170.0210 N.3     1  UNL1       -0.2700
     20 C         138.7356  140.4197  170.1003 C.3     1  UNL1        0.0897
     21 C         139.7463  142.7515  170.6399 C.3     1  UNL1        0.0897
@<TRIPOS>BOND
     1    11    10    1
     2    11    12    1
     3    12    13   ar
     4    13    14   ar
     5    14    15   ar
     6    15    16   ar
     7    11     1    1
     8     1     2   ar
     9     2    17    1
    10    17    18    1
    11    18    19    1
    12    19    20    1
    13    19    21    1
    14     2     3   ar
    15     3     4   ar
    16     4     5   ar
    17     5     6   ar
    18     6     7   ar
    19     7     8   ar
    20     8     9   ar
    21    16    12   ar
    22     9     1   ar
    23     9     4   ar
@<TRIPOS>MOLECULE
*****
 21 23 0 0 0
SMALL
GASTEIGER

@<TRIPOS>ATOM
      1 C         141.1037  141.6393  165.8955 C.ar    1  UNL1       -0.0144
      2 C         140.6516  140.2389  165.6049 C.ar    1  UNL1        0.0051
      3 S         139.3021  140.3132  164.9543 S.2     1  UNL1       -0.0915
      4 C         138.9202  141.7594  164.8426 C.ar    1  UNL1        0.0288
      5 C         137.7025  142.4359  164.2864 C.ar    1  UNL1        0.0065
      6 C         137.5982  143.9320  164.3120 C.ar    1  UNL1        0.0005
      7 C         138.7117  144.7517  164.8937 C.ar    1  UNL1        0.0000
      8 C         139.9294  144.0752  165.4499 C.ar    1  UNL1        0.0002
      9 C         140.0337  142.5791  165.4243 C.ar    1  UNL1        0.0025
     10 C         143.6338  142.2001  165.7091 C.3     1  UNL1        0.0111
     11 C         142.3986  142.0312  166.5434 C.3     1  UNL1        0.0632
     12 C         142.4584  142.2543  168.0254 C.ar    1  UNL1        0.0698
     13 C         141.3064  142.1485  168.9802 C.ar    1  UNL1        0.0519
     14 S         141.8167  142.4511  170.3578 S.2     1  UNL1       -0.0643
     15 C         143.2842  142.7439  170.2545 C.ar    1  UNL1        0.1341
     16 N         143.6808  142.6223  168.8130 N.ar    1  UNL1       -0.2403
     17 C         141.4149  138.9845  165.9113 C.3     1  UNL1        0.0499
     18 C         142.5369  138.5514  165.0149 C.3     1  UNL1        0.0774
     19 N         142.2414  138.0488  163.6329 N.3     1  UNL1       -0.2700
     20 C         143.1693  138.3774  162.5010 C.3     1  UNL1        0.0897
     21 C         141.0181  137.2176  163.3827 C.3     1  UNL1        0.0897
@<TRIPOS>BOND
     1    11    10    1
     2    11    12    1
     3    12    13   ar
     4    13    14   ar
     5    14    15   ar
     6    15    16   ar
     7    11     1    1
     8     1     2   ar
     9     2    17    1
    10    17    18    1
    11    18    19    1
    12    19    20    1
    13    19    21    1
    14     2     3   ar
    15     3     4   ar
    16     4     5   ar
    17     5     6   ar
    18     6     7   ar
    19     7     8   ar
    20     8     9   ar
    21    16    12   ar
    22     9     1   ar
    23     9     4   ar
@<TRIPOS>MOLECULE
*****
 21 23 0 0 0
SMALL
GASTEIGER

@<TRIPOS>ATOM
      1 C         142.2970  140.5534  165.4976 C.ar    1  UNL1       -0.0144
      2 C         143.2061  139.6315  164.7401 C.ar    1  UNL1        0.0051
      3 S         142.4302  138.3947  164.3965 S.2     1  UNL1       -0.0915
      4 C         141.0417  138.5520  164.9415 C.ar    1  UNL1        0.0288
      5 C         139.8416  137.6528  164.9061 C.ar    1  UNL1        0.0065
      6 C         138.5592  138.0878  165.5512 C.ar    1  UNL1        0.0005
      7 C         138.4769  139.4220  166.2318 C.ar    1  UNL1        0.0000
      8 C         139.6769  140.3212  166.2672 C.ar    1  UNL1        0.0002
      9 C         140.9593  139.8862  165.6221 C.ar    1  UNL1        0.0025
     10 C         142.9692  142.0734  167.4946 C.3     1  UNL1        0.0111
     11 C         142.6616  141.9051  166.0361 C.3     1  UNL1        0.0632
     12 C         142.7186  143.0885  165.1163 C.ar    1  UNL1        0.0698
     13 C         143.9595  143.8165  164.6920 C.ar    1  UNL1        0.0519
     14 S         143.5524  144.9297  163.7727 S.2     1  UNL1       -0.0643
     15 C         142.0600  144.8896  163.6287 C.ar    1  UNL1        0.1341
     16 N         141.5445  143.7517  164.4591 N.ar    1  UNL1       -0.2403
     17 C         144.6394  139.8996  164.3881 C.3     1  UNL1        0.0499
     18 C         144.9753  140.6640  163.1421 C.3     1  UNL1        0.0774
     19 N         144.0712  140.5861  161.9477 N.3     1  UNL1       -0.2700
     20 C         144.0970  139.3732  161.0655 C.3     1  UNL1        0.0897
     21 C         143.1415  141.7210  161.6354 C.3     1  UNL1        0.0897
@<TRIPOS>BOND
     1    11    10    1
     2    11    12    1
     3    12    13   ar
     4    13    14   ar
     5    14    15   ar
     6    15    16   ar
     7    11     1    1
     8     1     2   ar
     9     2    17    1
    10    17    18    1
    11    18    19    1
    12    19    20    1
    13    19    21    1
    14     2     3   ar
    15     3     4   ar
    16     4     5   ar
    17     5     6   ar
    18     6     7   ar
    19     7     8   ar
    20     8     9   ar
    21    16    12   ar
    22     9     1   ar
    23     9     4   ar
@<TRIPOS>MOLECULE
*****
 21 23 0 0 0
SMALL
GASTEIGER

@<TRIPOS>ATOM
      1 C         140.3359  139.9226  166.4902 C.ar    1  UNL1       -0.0144
      2 C         141.5263  139.1373  166.0253 C.ar    1  UNL1        0.0051
      3 S         142.7362  139.6636  166.7389 S.2     1  UNL1       -0.0915
      4 C         142.2936  140.7742  167.6448 C.ar    1  UNL1        0.0288
      5 C         143.0496  141.6604  168.5897 C.ar    1  UNL1        0.0065
      6 C         142.3222  142.7067  169.3809 C.ar    1  UNL1        0.0005
      7 C         140.8387  142.8668  169.2272 C.ar    1  UNL1        0.0000
      8 C         140.0827  141.9806  168.2823 C.ar    1  UNL1        0.0002
      9 C         140.8101  140.9343  167.4910 C.ar    1  UNL1        0.0025
     10 C         137.9987  138.8329  166.8067 C.3     1  UNL1        0.0111
     11 C         138.9199  139.7301  166.0343 C.3     1  UNL1        0.0632
     12 C         138.4251  140.4347  164.8061 C.ar    1  UNL1        0.0698
     13 C         138.1543  141.9048  164.6816 C.ar    1  UNL1        0.0519
     14 S         137.6760  142.1715  163.2852 S.2     1  UNL1       -0.0643
     15 C         137.6510  140.8663  162.5466 C.ar    1  UNL1        0.1341
     16 N         138.1140  139.7928  163.4865 N.ar    1  UNL1       -0.2403
     17 C         141.5098  138.0215  165.0229 C.3     1  UNL1        0.0499
     18 C         141.5008  138.3318  163.5554 C.3     1  UNL1        0.0774
     19 N         142.2621  139.5145  163.0342 N.3     1  UNL1       -0.2700
     20 C         143.7514  139.4363  162.8736 C.3     1  UNL1        0.0897
     21 C         141.5340  140.7754  162.6734 C.3     1  UNL1        0.0897
@<TRIPOS>BOND
     1    11    10    1
     2    11    12    1
     3    12    13   ar
     4    13    14   ar
     5    14    15   ar
     6    15    16   ar
     7    11     1    1
     8     1     2   ar
     9     2    17    1
    10    17    18    1
    11    18    19    1
    12    19    20    1
    13    19    21    1
    14     2     3   ar
    15     3     4   ar
    16     4     5   ar
    17     5     6   ar
    18     6     7   ar
    19     7     8   ar
    20     8     9   ar
    21    16    12   ar
    22     9     1   ar
    23     9     4   ar
@<TRIPOS>MOLECULE
*****
 21 23 0 0 0
SMALL
GASTEIGER

@<TRIPOS>ATOM
      1 C         141.8087  142.8607  165.3043 C.ar    1  UNL1       -0.0144
      2 C         142.7982  143.6971  164.5485 C.ar    1  UNL1        0.0051
      3 S         142.0363  144.5627  163.5892 S.2     1  UNL1       -0.0915
      4 C         140.5760  144.2613  163.7521 C.ar    1  UNL1        0.0288
      5 C         139.3562  144.8088  163.0722 C.ar    1  UNL1        0.0065
      6 C         137.9957  144.3044  163.4524 C.ar    1  UNL1        0.0005
      7 C         137.8550  143.2525  164.5124 C.ar    1  UNL1        0.0000
      8 C         139.0748  142.7050  165.1923 C.ar    1  UNL1        0.0002
      9 C         140.4353  143.2094  164.8122 C.ar    1  UNL1        0.0025
     10 C         142.4643  140.4400  165.9831 C.3     1  UNL1        0.0111
     11 C         142.1352  141.8526  166.3660 C.3     1  UNL1        0.0632
     12 C         142.1326  142.2568  167.8104 C.ar    1  UNL1        0.0698
     13 C         140.9178  142.5152  168.6515 C.ar    1  UNL1        0.0519
     14 S         141.3788  142.8918  170.0283 S.2     1  UNL1       -0.0643
     15 C         142.8785  142.8662  170.0382 C.ar    1  UNL1        0.1341
     16 N         143.3444  142.4737  168.6674 N.ar    1  UNL1       -0.2403
     17 C         144.2880  143.6722  164.7216 C.3     1  UNL1        0.0499
     18 C         145.0775  142.4851  164.2553 C.3     1  UNL1        0.0774
     19 N         144.7932  141.8749  162.9148 N.3     1  UNL1       -0.2700
     20 C         144.5135  140.4054  162.8037 C.3     1  UNL1        0.0897
     21 C         144.7888  142.7342  161.6853 C.3     1  UNL1        0.0897
@<TRIPOS>BOND
     1    11    10    1
     2    11    12    1
     3    12    13   ar
     4    13    14   ar
     5    14    15   ar
     6    15    16   ar
     7    11     1    1
     8     1     2   ar
     9     2    17    1
    10    17    18    1
    11    18    19    1
    12    19    20    1
    13    19    21    1
    14     2     3   ar
    15     3     4   ar
    16     4     5   ar
    17     5     6   ar
    18     6     7   ar
    19     7     8   ar
    20     8     9   ar
    21    16    12   ar
    22     9     1   ar
    23     9     4   ar
@<TRIPOS>MOLECULE
*****
 21 23 0 0 0
SMALL
GASTEIGER

@<TRIPOS>ATOM
      1 C         141.4007  141.3083  165.6174 C.ar    1  UNL1       -0.0144
      2 C         141.0036  139.8618  165.6321 C.ar    1  UNL1        0.0051
      3 S         142.1560  139.0596  165.1044 S.2     1  UNL1       -0.0915
      4 C         143.2652  140.0101  164.7636 C.ar    1  UNL1        0.0288
      5 C         144.6399  139.7897  164.2056 C.ar    1  UNL1        0.0065
      6 C         145.5479  140.9591  163.9646 C.ar    1  UNL1        0.0005
      7 C         145.0810  142.3489  164.2816 C.ar    1  UNL1        0.0000
      8 C         143.7063  142.5693  164.8396 C.ar    1  UNL1        0.0002
      9 C         142.7984  141.3999  165.0806 C.ar    1  UNL1        0.0025
     10 C         140.4631  142.8123  167.5172 C.3     1  UNL1        0.0111
     11 C         140.5494  142.4608  166.0614 C.3     1  UNL1        0.0632
     12 C         139.7846  143.2618  165.0499 C.ar    1  UNL1        0.0698
     13 C         140.3508  144.3252  164.1564 C.ar    1  UNL1        0.0519
     14 S         139.2353  144.8607  163.3085 S.2     1  UNL1       -0.0643
     15 C         137.9796  144.1282  163.6780 C.ar    1  UNL1        0.1341
     16 N         138.3190  143.1400  164.7543 N.ar    1  UNL1       -0.2403
     17 C         139.6857  139.3139  166.0934 C.3     1  UNL1        0.0499
     18 C         138.4654  139.4741  165.2360 C.3     1  UNL1        0.0774
     19 N         138.5239  139.1322  163.7767 N.3     1  UNL1       -0.2700
     20 C         138.9504  137.7606  163.3442 C.3     1  UNL1        0.0897
     21 C         138.1560  140.1618  162.7498 C.3     1  UNL1        0.0897
@<TRIPOS>BOND
     1    11    10    1
     2    11    12    1
     3    12    13   ar
     4    13    14   ar
     5    14    15   ar
     6    15    16   ar
     7    11     1    1
     8     1     2   ar
     9     2    17    1
    10    17    18    1
    11    18    19    1
    12    19    20    1
    13    19    21    1
    14     2     3   ar
    15     3     4   ar
    16     4     5   ar
    17     5     6   ar
    18     6     7   ar
    19     7     8   ar
    20     8     9   ar
    21    16    12   ar
    22     9     1   ar
    23     9     4   ar
@<TRIPOS>MOLECULE
*****
 21 23 0 0 0
SMALL
GASTEIGER

@<TRIPOS>ATOM
      1 C         139.9541  140.2476  165.5539 C.ar    1  UNL1       -0.0144
      2 C         139.4325  141.1440  164.4701 C.ar    1  UNL1        0.0051
      3 S         140.5093  141.2974  163.4373 S.2     1  UNL1       -0.0915
      4 C         141.6964  140.4959  163.8826 C.ar    1  UNL1        0.0288
      5 C         143.0455  140.2730  163.2660 C.ar    1  UNL1        0.0065
      6 C         144.0514  139.4013  163.9575 C.ar    1  UNL1        0.0005
      7 C         143.7083  138.7525  165.2656 C.ar    1  UNL1        0.0000
      8 C         142.3592  138.9754  165.8823 C.ar    1  UNL1        0.0002
      9 C         141.3533  139.8471  165.1908 C.ar    1  UNL1        0.0025
     10 C         138.0631  138.8623  166.6744 C.3     1  UNL1        0.0111
     11 C         139.2076  139.8258  166.7846 C.3     1  UNL1        0.0632
     12 C         139.6054  140.3674  168.1256 C.ar    1  UNL1        0.0698
     13 C         140.4015  141.6145  168.3720 C.ar    1  UNL1        0.0519
     14 S         140.5651  141.7748  169.8544 S.2     1  UNL1       -0.0643
     15 C         139.8700  140.6268  170.5243 C.ar    1  UNL1        0.1341
     16 N         139.2768  139.7569  169.4558 N.ar    1  UNL1       -0.2403
     17 C         138.0728  141.7759  164.4269 C.3     1  UNL1        0.0499
     18 C         137.8260  142.9650  163.5465 C.3     1  UNL1        0.0774
     19 N         138.5213  144.2639  163.8280 N.3     1  UNL1       -0.2700
     20 C         139.1165  145.0556  162.7015 C.3     1  UNL1        0.0897
     21 C         138.6214  144.7712  165.2361 C.3     1  UNL1        0.0897
@<TRIPOS>BOND
     1    11    10    1
     2    11    12    1
     3    12    13   ar
     4    13    14   ar
     5    14    15   ar
     6    15    16   ar
     7    11     1    1
     8     1     2   ar
     9     2    17    1
    10    17    18    1
    11    18    19    1
    12    19    20    1
    13    19    21    1
    14     2     3   ar
    15     3     4   ar
    16     4     5   ar
    17     5     6   ar
    18     6     7   ar
    19     7     8   ar
    20     8     9   ar
    21    16    12   ar
    22     9     1   ar
    23     9     4   ar
@<TRIPOS>MOLECULE
*****
 21 23 0 0 0
SMALL
GASTEIGER

@<TRIPOS>ATOM
      1 C         141.6150  141.4797  165.4556 C.ar    1  UNL1       -0.0144
      2 C         141.1474  142.8801  165.1907 C.ar    1  UNL1        0.0051
      3 S         142.2289  143.5950  164.4363 S.2     1  UNL1       -0.0915
      4 C         143.3650  142.6365  164.2349 C.ar    1  UNL1        0.0288
      5 C         144.6960  142.7852  163.5593 C.ar    1  UNL1        0.0065
      6 C         145.6475  141.6265  163.5137 C.ar    1  UNL1        0.0005
      7 C         145.2680  140.3192  164.1437 C.ar    1  UNL1        0.0000
      8 C         143.9371  140.1705  164.8193 C.ar    1  UNL1        0.0002
      9 C         142.9856  141.3291  164.8649 C.ar    1  UNL1        0.0025
     10 C         139.7495  139.6715  165.4827 C.3     1  UNL1        0.0111
     11 C         140.8470  140.4165  166.1834 C.3     1  UNL1        0.0632
     12 C         141.1762  140.0983  167.6117 C.ar    1  UNL1        0.0698
     13 C         140.2801  140.3209  168.7938 C.ar    1  UNL1        0.0519
     14 S         141.0095  139.8617  170.0214 S.2     1  UNL1       -0.0643
     15 C         142.3564  139.3552  169.5981 C.ar    1  UNL1        0.1341
     16 N         142.4594  139.5014  168.1087 N.ar    1  UNL1       -0.2403
     17 C         139.8296  143.4632  165.6070 C.3     1  UNL1        0.0499
     18 C         139.2936  144.6787  164.9105 C.3     1  UNL1        0.0774
     19 N         138.8340  144.5851  163.4857 N.3     1  UNL1       -0.2700
     20 C         139.4708  145.4449  162.4342 C.3     1  UNL1        0.0897
     21 C         137.7378  143.6319  163.1124 C.3     1  UNL1        0.0897
@<TRIPOS>BOND
     1    11    10    1
     2    11    12    1
     3    12    13   ar
     4    13    14   ar
     5    14    15   ar
     6    15    16   ar
     7    11     1    1
     8     1     2   ar
     9     2    17    1
    10    17    18    1
    11    18    19    1
    12    19    20    1
    13    19    21    1
    14     2     3   ar
    15     3     4   ar
    16     4     5   ar
    17     5     6   ar
    18     6     7   ar
    19     7     8   ar
    20     8     9   ar
    21    16    12   ar
    22     9     1   ar
    23     9     4   ar
