@<TRIPOS>MOLECULE
*****
 29 31 0 0 0
SMALL
GASTEIGER

@<TRIPOS>ATOM
      1 N         139.2502  142.5022  160.8451 N.3     1  UNL1       -0.2723
      2 C         140.2641  141.3978  160.7977 C.3     1  UNL1        0.0725
      3 C         140.1679  140.2497  161.7581 C.3     1  UNL1        0.0250
      4 C         139.0578  140.2060  162.7660 C.3     1  UNL1        0.0647
      5 C         138.0439  141.3104  162.8134 C.3     1  UNL1        0.0250
      6 C         138.1401  142.4585  161.8530 C.3     1  UNL1        0.0725
      7 C         138.9616  139.0577  163.7264 C.2     1  UNL1        0.1727
      8 O         138.8851  137.6518  163.2093 O.2     1  UNL1       -0.2914
      9 C         138.9419  139.3155  165.2040 C.ar    1  UNL1        0.0348
     10 C         139.8881  140.3129  165.8040 C.ar    1  UNL1        0.0042
     11 C         139.8684  140.5707  167.2815 C.ar    1  UNL1        0.0159
     12 C         138.9025  139.8310  168.1591 C.ar    1  UNL1        0.0644
     13 C         137.9564  138.8336  167.5591 C.ar    1  UNL1        0.0159
     14 C         137.9761  138.5758  166.0815 C.ar    1  UNL1        0.0042
     15 N         138.8829  140.0888  169.6366 N.pl3   1  UNL1       -0.2187
     16 H         138.0756  139.8835  170.1614 H       1  UNL1        0.1734
     17 S         140.0931  140.6593  170.3146 S.O2    1  UNL1        0.0558
     18 C         141.3034  141.2299  170.9926 C.3     1  UNL1        0.1996
     19 O         139.3946  141.9798  170.4502 O.2     1  UNL1       -0.1544
     20 O         140.7916  139.3388  170.1790 O.2     1  UNL1       -0.1544
     21 C         139.3464  143.6505  159.8846 C.3     1  UNL1        0.0784
     22 C         140.1883  144.8443  160.2249 C.3     1  UNL1        0.0631
     23 C         144.7770  143.3957  162.1859 C.3     1  UNL1        0.0521
     24 C         143.4419  144.0577  162.3569 C.ar    1  UNL1        0.0590
     25 C         143.0660  144.6574  163.6794 C.ar    1  UNL1        0.0147
     26 C         141.7309  145.3194  163.8504 C.ar    1  UNL1        0.0024
     27 C         140.7717  145.3818  162.6989 C.ar    1  UNL1        0.0148
     28 C         141.1475  144.7820  161.3764 C.ar    1  UNL1        0.0600
     29 N         142.4826  144.1200  161.2054 N.ar    1  UNL1       -0.2539
@<TRIPOS>BOND
     1    23    24    1
     2    24    25   ar
     3    25    26   ar
     4    26    27   ar
     5    27    28   ar
     6    28    22    1
     7    22    21    1
     8    21     1    1
     9     1     2    1
    10     2     3    1
    11     3     4    1
    12     4     7    1
    13     7     8    2
    14     7     9    1
    15     9    10   ar
    16    10    11   ar
    17    11    12   ar
    18    12    15    1
    19    15    17    1
    20    17    18    1
    21    17    19    2
    22    17    20    2
    23    12    13   ar
    24    13    14   ar
    25     4     5    1
    26     5     6    1
    27    28    29   ar
    28    29    24   ar
    29     6     1    1
    30    14     9   ar
    31    15    16    1
@<TRIPOS>MOLECULE
*****
 29 31 0 0 0
SMALL
GASTEIGER

@<TRIPOS>ATOM
      1 N         143.2624  140.4794  161.1224 N.3     1  UNL1       -0.2723
      2 C         141.7854  140.2946  161.3073 C.3     1  UNL1        0.0725
      3 C         141.2663  139.5546  162.5044 C.3     1  UNL1        0.0250
      4 C         142.2242  138.9995  163.5164 C.3     1  UNL1        0.0647
      5 C         143.7012  139.1844  163.3315 C.3     1  UNL1        0.0250
      6 C         144.2203  139.9243  162.1344 C.3     1  UNL1        0.0725
      7 C         141.7050  138.2596  164.7135 C.2     1  UNL1        0.1727
      8 O         141.3407  136.8090  164.5987 O.2     1  UNL1       -0.2914
      9 C         141.5502  138.9701  166.0254 C.ar    1  UNL1        0.0348
     10 C         140.2337  139.5879  166.3930 C.ar    1  UNL1        0.0042
     11 C         140.0788  140.2984  167.7049 C.ar    1  UNL1        0.0159
     12 C         141.2406  140.3913  168.6493 C.ar    1  UNL1        0.0644
     13 C         142.5571  139.7735  168.2817 C.ar    1  UNL1        0.0159
     14 C         142.7119  139.0629  166.9697 C.ar    1  UNL1        0.0042
     15 N         141.0858  141.1018  169.9612 N.pl3   1  UNL1       -0.2187
     16 H         141.2256  140.6139  170.8047 H       1  UNL1        0.1734
     17 S         140.7178  142.5558  169.9878 S.O2    1  UNL1        0.0558
     18 C         140.3499  144.0097  170.0144 C.3     1  UNL1        0.1996
     19 O         142.0476  142.9033  169.3870 O.2     1  UNL1       -0.1544
     20 O         139.3880  142.2083  170.5885 O.2     1  UNL1       -0.1544
     21 C         143.7816  141.2194  159.9253 C.3     1  UNL1        0.0784
     22 C         144.1524  142.6681  160.0418 C.3     1  UNL1        0.0631
     23 C         140.3620  145.5696  162.0947 C.3     1  UNL1        0.0521
     24 C         141.7200  144.9417  162.2016 C.ar    1  UNL1        0.0590
     25 C         142.5409  145.1367  163.4417 C.ar    1  UNL1        0.0147
     26 C         143.8990  144.5088  163.5486 C.ar    1  UNL1        0.0024
     27 C         144.4361  143.6859  162.4153 C.ar    1  UNL1        0.0148
     28 C         143.6152  143.4910  161.1752 C.ar    1  UNL1        0.0600
     29 N         142.2572  144.1189  161.0683 N.ar    1  UNL1       -0.2539
@<TRIPOS>BOND
     1    23    24    1
     2    24    25   ar
     3    25    26   ar
     4    26    27   ar
     5    27    28   ar
     6    28    22    1
     7    22    21    1
     8    21     1    1
     9     1     2    1
    10     2     3    1
    11     3     4    1
    12     4     7    1
    13     7     8    2
    14     7     9    1
    15     9    10   ar
    16    10    11   ar
    17    11    12   ar
    18    12    15    1
    19    15    17    1
    20    17    18    1
    21    17    19    2
    22    17    20    2
    23    12    13   ar
    24    13    14   ar
    25     4     5    1
    26     5     6    1
    27    28    29   ar
    28    29    24   ar
    29     6     1    1
    30    14     9   ar
    31    15    16    1
@<TRIPOS>MOLECULE
*****
 29 31 0 0 0
SMALL
GASTEIGER

@<TRIPOS>ATOM
      1 N         141.3678  142.0950  160.3248 N.3     1  UNL1       -0.2723
      2 C         140.4741  143.2121  160.7758 C.3     1  UNL1        0.0725
      3 C         139.4358  142.9632  161.8292 C.3     1  UNL1        0.0250
      4 C         139.2911  141.5971  162.4316 C.3     1  UNL1        0.0647
      5 C         140.1847  140.4800  161.9806 C.3     1  UNL1        0.0250
      6 C         141.2230  140.7290  160.9272 C.3     1  UNL1        0.0725
      7 C         138.2526  141.3481  163.4851 C.2     1  UNL1        0.1727
      8 O         136.7974  141.4988  163.1542 O.2     1  UNL1       -0.2914
      9 C         138.6695  140.9486  164.8695 C.ar    1  UNL1        0.0348
     10 C         139.6042  141.8219  165.6528 C.ar    1  UNL1        0.0042
     11 C         140.0210  141.4224  167.0372 C.ar    1  UNL1        0.0159
     12 C         139.5032  140.1493  167.6383 C.ar    1  UNL1        0.0644
     13 C         138.5685  139.2759  166.8550 C.ar    1  UNL1        0.0159
     14 C         138.1517  139.6756  165.4706 C.ar    1  UNL1        0.0042
     15 N         139.9200  139.7497  169.0227 N.pl3   1  UNL1       -0.2187
     16 H         139.9392  138.7985  169.2757 H       1  UNL1        0.1734
     17 S         140.3077  140.7994  170.0216 S.O2    1  UNL1        0.0558
     18 C         140.6954  141.8491  171.0205 C.3     1  UNL1        0.1996
     19 O         138.8588  141.0926  170.2758 O.2     1  UNL1       -0.1544
     20 O         141.7567  140.5062  169.7673 O.2     1  UNL1       -0.1544
     21 C         142.4062  142.3440  159.2712 C.3     1  UNL1        0.0784
     22 C         143.8018  142.7235  159.6687 C.3     1  UNL1        0.0631
     23 C         143.7560  145.2388  164.2153 C.3     1  UNL1        0.0521
     24 C         144.1534  144.0489  163.3930 C.ar    1  UNL1        0.0590
     25 C         144.9251  142.9267  164.0215 C.ar    1  UNL1        0.0147
     26 C         145.3224  141.7368  163.1992 C.ar    1  UNL1        0.0024
     27 C         144.9480  141.6691  161.7483 C.ar    1  UNL1        0.0148
     28 C         144.1763  142.7912  161.1197 C.ar    1  UNL1        0.0600
     29 N         143.7790  143.9811  161.9420 N.ar    1  UNL1       -0.2539
@<TRIPOS>BOND
     1    23    24    1
     2    24    25   ar
     3    25    26   ar
     4    26    27   ar
     5    27    28   ar
     6    28    22    1
     7    22    21    1
     8    21     1    1
     9     1     2    1
    10     2     3    1
    11     3     4    1
    12     4     7    1
    13     7     8    2
    14     7     9    1
    15     9    10   ar
    16    10    11   ar
    17    11    12   ar
    18    12    15    1
    19    15    17    1
    20    17    18    1
    21    17    19    2
    22    17    20    2
    23    12    13   ar
    24    13    14   ar
    25     4     5    1
    26     5     6    1
    27    28    29   ar
    28    29    24   ar
    29     6     1    1
    30    14     9   ar
    31    15    16    1
@<TRIPOS>MOLECULE
*****
 29 31 0 0 0
SMALL
GASTEIGER

@<TRIPOS>ATOM
      1 N         142.3268  140.6311  160.8306 N.3     1  UNL1       -0.2723
      2 C         142.7182  139.3181  161.4410 C.3     1  UNL1        0.0725
      3 C         141.7728  138.6090  162.3647 C.3     1  UNL1        0.0250
      4 C         140.4359  139.2129  162.6779 C.3     1  UNL1        0.0647
      5 C         140.0445  140.5259  162.0674 C.3     1  UNL1        0.0250
      6 C         140.9899  141.2350  161.1437 C.3     1  UNL1        0.0725
      7 C         139.4904  138.5037  163.6017 C.2     1  UNL1        0.1727
      8 O         138.6526  137.3692  163.0910 O.2     1  UNL1       -0.2914
      9 C         139.3829  138.9291  165.0360 C.ar    1  UNL1        0.0348
     10 C         138.2283  138.4623  165.8722 C.ar    1  UNL1        0.0042
     11 C         138.1208  138.8876  167.3066 C.ar    1  UNL1        0.0159
     12 C         139.1678  139.7798  167.9048 C.ar    1  UNL1        0.0644
     13 C         140.3223  140.2466  167.0687 C.ar    1  UNL1        0.0159
     14 C         140.4298  139.8212  165.6342 C.ar    1  UNL1        0.0042
     15 N         139.0602  140.2052  169.3392 N.pl3   1  UNL1       -0.2187
     16 H         138.1922  140.1617  169.8018 H       1  UNL1        0.1734
     17 S         140.2751  140.6969  170.0688 S.O2    1  UNL1        0.0558
     18 C         141.4899  141.1885  170.7985 C.3     1  UNL1        0.1996
     19 O         140.7387  139.2819  170.2502 O.2     1  UNL1       -0.1544
     20 O         139.8114  142.1118  169.8874 O.2     1  UNL1       -0.1544
     21 C         143.2722  141.3403  159.9068 C.3     1  UNL1        0.0784
     22 C         144.4138  142.1353  160.4677 C.3     1  UNL1        0.0631
     23 C         142.4748  145.5194  163.9011 C.3     1  UNL1        0.0521
     24 C         143.3713  144.3590  163.5851 C.ar    1  UNL1        0.0590
     25 C         144.1947  143.7303  164.6698 C.ar    1  UNL1        0.0147
     26 C         145.0911  142.5699  164.3539 C.ar    1  UNL1        0.0024
     27 C         145.1642  142.0383  162.9532 C.ar    1  UNL1        0.0148
     28 C         144.3408  142.6670  161.8685 C.ar    1  UNL1        0.0600
     29 N         143.4443  143.8274  162.1844 N.ar    1  UNL1       -0.2539
@<TRIPOS>BOND
     1    23    24    1
     2    24    25   ar
     3    25    26   ar
     4    26    27   ar
     5    27    28   ar
     6    28    22    1
     7    22    21    1
     8    21     1    1
     9     1     2    1
    10     2     3    1
    11     3     4    1
    12     4     7    1
    13     7     8    2
    14     7     9    1
    15     9    10   ar
    16    10    11   ar
    17    11    12   ar
    18    12    15    1
    19    15    17    1
    20    17    18    1
    21    17    19    2
    22    17    20    2
    23    12    13   ar
    24    13    14   ar
    25     4     5    1
    26     5     6    1
    27    28    29   ar
    28    29    24   ar
    29     6     1    1
    30    14     9   ar
    31    15    16    1
@<TRIPOS>MOLECULE
*****
 29 31 0 0 0
SMALL
GASTEIGER

@<TRIPOS>ATOM
      1 N         140.3643  140.2928  161.2920 N.3     1  UNL1       -0.2723
      2 C         140.1169  139.3439  162.4271 C.3     1  UNL1        0.0725
      3 C         141.1511  139.1719  163.4997 C.3     1  UNL1        0.0250
      4 C         142.4328  139.9487  163.4373 C.3     1  UNL1        0.0647
      5 C         142.6802  140.8976  162.3023 C.3     1  UNL1        0.0250
      6 C         141.6459  141.0696  161.2296 C.3     1  UNL1        0.0725
      7 C         143.4671  139.7766  164.5101 C.2     1  UNL1        0.1727
      8 O         144.8093  139.1985  164.1720 O.2     1  UNL1       -0.2914
      9 C         143.1592  140.1828  165.9208 C.ar    1  UNL1        0.0348
     10 C         143.0924  141.6363  166.2853 C.ar    1  UNL1        0.0042
     11 C         142.7845  142.0424  167.6960 C.ar    1  UNL1        0.0159
     12 C         142.5434  140.9950  168.7424 C.ar    1  UNL1        0.0644
     13 C         142.6102  139.5414  168.3779 C.ar    1  UNL1        0.0159
     14 C         142.9181  139.1354  166.9671 C.ar    1  UNL1        0.0042
     15 N         142.2355  141.4011  170.1531 N.pl3   1  UNL1       -0.2187
     16 H         142.8383  141.1352  170.8846 H       1  UNL1        0.1734
     17 S         141.0090  142.2123  170.4494 S.O2    1  UNL1        0.0558
     18 C         139.7826  143.0235  170.7456 C.3     1  UNL1        0.1996
     19 O         141.8562  143.4423  170.5884 O.2     1  UNL1       -0.1544
     20 O         140.1619  140.9823  170.3104 O.2     1  UNL1       -0.1544
     21 C         139.3300  140.4648  160.2193 C.3     1  UNL1        0.0784
     22 C         138.2176  141.4544  160.4017 C.3     1  UNL1        0.0631
     23 C         139.8425  146.1459  161.9347 C.3     1  UNL1        0.0521
     24 C         139.1329  144.8572  162.2275 C.ar    1  UNL1        0.0590
     25 C         138.5260  144.6256  163.5795 C.ar    1  UNL1        0.0147
     26 C         137.8164  143.3369  163.8723 C.ar    1  UNL1        0.0024
     27 C         137.7136  142.2799  162.8131 C.ar    1  UNL1        0.0148
     28 C         138.3204  142.5115  161.4610 C.ar    1  UNL1        0.0600
     29 N         139.0301  143.8002  161.1682 N.ar    1  UNL1       -0.2539
@<TRIPOS>BOND
     1    23    24    1
     2    24    25   ar
     3    25    26   ar
     4    26    27   ar
     5    27    28   ar
     6    28    22    1
     7    22    21    1
     8    21     1    1
     9     1     2    1
    10     2     3    1
    11     3     4    1
    12     4     7    1
    13     7     8    2
    14     7     9    1
    15     9    10   ar
    16    10    11   ar
    17    11    12   ar
    18    12    15    1
    19    15    17    1
    20    17    18    1
    21    17    19    2
    22    17    20    2
    23    12    13   ar
    24    13    14   ar
    25     4     5    1
    26     5     6    1
    27    28    29   ar
    28    29    24   ar
    29     6     1    1
    30    14     9   ar
    31    15    16    1
@<TRIPOS>MOLECULE
*****
 29 31 0 0 0
SMALL
GASTEIGER

@<TRIPOS>ATOM
      1 N         141.2508  139.9826  160.2764 N.3     1  UNL1       -0.2723
      2 C         140.9547  138.9548  161.3281 C.3     1  UNL1        0.0725
      3 C         139.9632  139.2558  162.4127 C.3     1  UNL1        0.0250
      4 C         139.2678  140.5845  162.4456 C.3     1  UNL1        0.0647
      5 C         139.5639  141.6122  161.3939 C.3     1  UNL1        0.0250
      6 C         140.5554  141.3112  160.3094 C.3     1  UNL1        0.0725
      7 C         138.2763  140.8854  163.5303 C.2     1  UNL1        0.1727
      8 O         136.9416  141.4757  163.1836 O.2     1  UNL1       -0.2914
      9 C         138.6195  140.5960  164.9615 C.ar    1  UNL1        0.0348
     10 C         138.0349  139.3956  165.6450 C.ar    1  UNL1        0.0042
     11 C         138.3781  139.1062  167.0762 C.ar    1  UNL1        0.0159
     12 C         139.3059  140.0172  167.8240 C.ar    1  UNL1        0.0644
     13 C         139.8906  141.2176  167.1405 C.ar    1  UNL1        0.0159
     14 C         139.5473  141.5070  165.7092 C.ar    1  UNL1        0.0042
     15 N         139.6491  139.7278  169.2552 N.pl3   1  UNL1       -0.2187
     16 H         139.4828  138.8328  169.6300 H       1  UNL1        0.1734
     17 S         140.2457  140.8021  170.1154 S.O2    1  UNL1        0.0558
     18 C         140.8422  141.8764  170.9757 C.3     1  UNL1        0.1996
     19 O         141.6178  140.2654  169.8341 O.2     1  UNL1       -0.1544
     20 O         138.8735  141.3388  170.3968 O.2     1  UNL1       -0.1544
     21 C         142.2423  139.6816  159.1918 C.3     1  UNL1        0.0784
     22 C         143.6632  140.1434  159.3253 C.3     1  UNL1        0.0631
     23 C         145.1326  139.7890  164.2967 C.3     1  UNL1        0.0521
     24 C         144.8575  140.6215  163.0797 C.ar    1  UNL1        0.0590
     25 C         145.0419  142.1092  163.1312 C.ar    1  UNL1        0.0147
     26 C         144.7668  142.9416  161.9141 C.ar    1  UNL1        0.0024
     27 C         144.3072  142.2864  160.6455 C.ar    1  UNL1        0.0148
     28 C         144.1228  140.7987  160.5940 C.ar    1  UNL1        0.0600
     29 N         144.3979  139.9662  161.8111 N.ar    1  UNL1       -0.2539
@<TRIPOS>BOND
     1    23    24    1
     2    24    25   ar
     3    25    26   ar
     4    26    27   ar
     5    27    28   ar
     6    28    22    1
     7    22    21    1
     8    21     1    1
     9     1     2    1
    10     2     3    1
    11     3     4    1
    12     4     7    1
    13     7     8    2
    14     7     9    1
    15     9    10   ar
    16    10    11   ar
    17    11    12   ar
    18    12    15    1
    19    15    17    1
    20    17    18    1
    21    17    19    2
    22    17    20    2
    23    12    13   ar
    24    13    14   ar
    25     4     5    1
    26     5     6    1
    27    28    29   ar
    28    29    24   ar
    29     6     1    1
    30    14     9   ar
    31    15    16    1
@<TRIPOS>MOLECULE
*****
 29 31 0 0 0
SMALL
GASTEIGER

@<TRIPOS>ATOM
      1 N         139.4314  138.8770  162.3486 N.3     1  UNL1       -0.2723
      2 C         138.9139  140.1335  162.9838 C.3     1  UNL1        0.0725
      3 C         138.5255  140.1364  164.4326 C.3     1  UNL1        0.0250
      4 C         138.6546  138.8829  165.2462 C.3     1  UNL1        0.0647
      5 C         139.1721  137.6264  164.6111 C.3     1  UNL1        0.0250
      6 C         139.5605  137.6235  163.1623 C.3     1  UNL1        0.0725
      7 C         138.2661  138.8858  166.6951 C.2     1  UNL1        0.1727
      8 O         136.9991  138.2130  167.1333 O.2     1  UNL1       -0.2914
      9 C         139.1447  139.5616  167.7058 C.ar    1  UNL1        0.0348
     10 C         138.6087  139.8844  169.0690 C.ar    1  UNL1        0.0042
     11 C         139.4873  140.5602  170.0797 C.ar    1  UNL1        0.0159
     12 C         140.9020  140.9131  169.7271 C.ar    1  UNL1        0.0644
     13 C         141.4380  140.5902  168.3638 C.ar    1  UNL1        0.0159
     14 C         140.5593  139.9145  167.3531 C.ar    1  UNL1        0.0042
     15 N         141.7806  141.5888  170.7377 N.pl3   1  UNL1       -0.2187
     16 H         141.4972  141.6419  171.6790 H       1  UNL1        0.1734
     17 S         143.0908  142.1837  170.3141 S.O2    1  UNL1        0.0558
     18 C         144.4010  142.7785  169.8905 C.3     1  UNL1        0.1996
     19 O         143.7081  140.8166  170.3037 O.2     1  UNL1       -0.1544
     20 O         142.4735  143.5507  170.3245 O.2     1  UNL1       -0.1544
     21 C         139.8198  138.8741  160.8997 C.3     1  UNL1        0.0784
     22 C         141.2402  138.5978  160.5046 C.3     1  UNL1        0.0631
     23 C         144.5706  142.4781  161.4273 C.3     1  UNL1        0.0521
     24 C         144.0331  141.1193  161.7661 C.ar    1  UNL1        0.0590
     25 C         144.6233  140.3419  162.9051 C.ar    1  UNL1        0.0147
     26 C         144.0858  138.9831  163.2439 C.ar    1  UNL1        0.0024
     27 C         142.9581  138.4017  162.4438 C.ar    1  UNL1        0.0148
     28 C         142.3679  139.1791  161.3048 C.ar    1  UNL1        0.0600
     29 N         142.9054  140.5379  160.9660 N.ar    1  UNL1       -0.2539
@<TRIPOS>BOND
     1    23    24    1
     2    24    25   ar
     3    25    26   ar
     4    26    27   ar
     5    27    28   ar
     6    28    22    1
     7    22    21    1
     8    21     1    1
     9     1     2    1
    10     2     3    1
    11     3     4    1
    12     4     7    1
    13     7     8    2
    14     7     9    1
    15     9    10   ar
    16    10    11   ar
    17    11    12   ar
    18    12    15    1
    19    15    17    1
    20    17    18    1
    21    17    19    2
    22    17    20    2
    23    12    13   ar
    24    13    14   ar
    25     4     5    1
    26     5     6    1
    27    28    29   ar
    28    29    24   ar
    29     6     1    1
    30    14     9   ar
    31    15    16    1
@<TRIPOS>MOLECULE
*****
 29 31 0 0 0
SMALL
GASTEIGER

@<TRIPOS>ATOM
      1 N         139.2298  141.9713  160.8120 N.3     1  UNL1       -0.2723
      2 C         138.1826  142.0170  161.8849 C.3     1  UNL1        0.0725
      3 C         138.1978  141.0043  162.9913 C.3     1  UNL1        0.0250
      4 C         139.2602  139.9459  163.0248 C.3     1  UNL1        0.0647
      5 C         140.3074  139.9003  161.9519 C.3     1  UNL1        0.0250
      6 C         140.2922  140.9130  160.8455 C.3     1  UNL1        0.0725
      7 C         139.2754  138.9332  164.1313 C.2     1  UNL1        0.1727
      8 O         138.7707  137.5428  163.8823 O.2     1  UNL1       -0.2914
      9 C         139.7952  139.3110  165.4867 C.ar    1  UNL1        0.0348
     10 C         141.2699  139.4765  165.7050 C.ar    1  UNL1        0.0042
     11 C         141.7897  139.8542  167.0603 C.ar    1  UNL1        0.0159
     12 C         140.8347  140.0665  168.1975 C.ar    1  UNL1        0.0644
     13 C         139.3600  139.9010  167.9792 C.ar    1  UNL1        0.0159
     14 C         138.8402  139.5232  166.6237 C.ar    1  UNL1        0.0042
     15 N         141.3545  140.4443  169.5529 N.pl3   1  UNL1       -0.2187
     16 H         140.9147  140.0980  170.3628 H       1  UNL1        0.1734
     17 S         142.5444  141.3495  169.6743 S.O2    1  UNL1        0.0558
     18 C         143.7343  142.2547  169.7957 C.3     1  UNL1        0.1996
     19 O         143.3777  140.1919  170.1386 O.2     1  UNL1       -0.1544
     20 O         141.7111  142.5071  169.2099 O.2     1  UNL1       -0.1544
     21 C         139.2146  142.9840  159.7055 C.3     1  UNL1        0.0784
     22 C         140.0659  144.2151  159.8038 C.3     1  UNL1        0.0631
     23 C         144.5007  143.9170  162.4953 C.3     1  UNL1        0.0521
     24 C         143.0646  144.3397  162.4004 C.ar    1  UNL1        0.0590
     25 C         142.4098  145.0361  163.5564 C.ar    1  UNL1        0.0147
     26 C         140.9738  145.4588  163.4615 C.ar    1  UNL1        0.0024
     27 C         140.1925  145.1851  162.2107 C.ar    1  UNL1        0.0148
     28 C         140.8472  144.4888  161.0547 C.ar    1  UNL1        0.0600
     29 N         142.2833  144.0661  161.1496 N.ar    1  UNL1       -0.2539
@<TRIPOS>BOND
     1    23    24    1
     2    24    25   ar
     3    25    26   ar
     4    26    27   ar
     5    27    28   ar
     6    28    22    1
     7    22    21    1
     8    21     1    1
     9     1     2    1
    10     2     3    1
    11     3     4    1
    12     4     7    1
    13     7     8    2
    14     7     9    1
    15     9    10   ar
    16    10    11   ar
    17    11    12   ar
    18    12    15    1
    19    15    17    1
    20    17    18    1
    21    17    19    2
    22    17    20    2
    23    12    13   ar
    24    13    14   ar
    25     4     5    1
    26     5     6    1
    27    28    29   ar
    28    29    24   ar
    29     6     1    1
    30    14     9   ar
    31    15    16    1
@<TRIPOS>MOLECULE
*****
 29 31 0 0 0
SMALL
GASTEIGER

@<TRIPOS>ATOM
      1 N         141.1749  141.4770  160.6556 N.3     1  UNL1       -0.2723
      2 C         139.9287  141.8717  161.3912 C.3     1  UNL1        0.0725
      3 C         139.3203  140.9350  162.3924 C.3     1  UNL1        0.0250
      4 C         139.9581  139.6036  162.6580 C.3     1  UNL1        0.0647
      5 C         141.2042  139.2088  161.9223 C.3     1  UNL1        0.0250
      6 C         141.8126  140.1455  160.9211 C.3     1  UNL1        0.0725
      7 C         139.3496  138.6669  163.6592 C.2     1  UNL1        0.1727
      8 O         138.8138  137.3384  163.2143 O.2     1  UNL1       -0.2914
      9 C         139.2771  139.0587  165.1053 C.ar    1  UNL1        0.0348
     10 C         138.1041  138.6357  165.9390 C.ar    1  UNL1        0.0042
     11 C         138.0315  139.0275  167.3851 C.ar    1  UNL1        0.0159
     12 C         139.1320  139.8423  167.9975 C.ar    1  UNL1        0.0644
     13 C         140.3050  140.2653  167.1638 C.ar    1  UNL1        0.0159
     14 C         140.3776  139.8735  165.7176 C.ar    1  UNL1        0.0042
     15 N         139.0595  140.2341  169.4436 N.pl3   1  UNL1       -0.2187
     16 H         138.2097  140.1518  169.9339 H       1  UNL1        0.1734
     17 S         140.2816  140.7514  170.1427 S.O2    1  UNL1        0.0558
     18 C         141.5038  141.2686  170.8419 C.3     1  UNL1        0.1996
     19 O         139.7732  142.1546  169.9934 O.2     1  UNL1       -0.1544
     20 O         140.7901  139.3481  170.2921 O.2     1  UNL1       -0.1544
     21 C         141.7833  142.4137  159.6543 C.3     1  UNL1        0.0784
     22 C         142.7817  143.4412  160.0987 C.3     1  UNL1        0.0631
     23 C         145.8562  141.6346  163.8780 C.3     1  UNL1        0.0521
     24 C         144.7779  142.5694  163.4161 C.ar    1  UNL1        0.0590
     25 C         144.1586  143.5357  164.3818 C.ar    1  UNL1        0.0147
     26 C         143.0803  144.4705  163.9198 C.ar    1  UNL1        0.0024
     27 C         142.6213  144.4390  162.4921 C.ar    1  UNL1        0.0148
     28 C         143.2406  143.4727  161.5264 C.ar    1  UNL1        0.0600
     29 N         144.3189  142.5379  161.9884 N.ar    1  UNL1       -0.2539
@<TRIPOS>BOND
     1    23    24    1
     2    24    25   ar
     3    25    26   ar
     4    26    27   ar
     5    27    28   ar
     6    28    22    1
     7    22    21    1
     8    21     1    1
     9     1     2    1
    10     2     3    1
    11     3     4    1
    12     4     7    1
    13     7     8    2
    14     7     9    1
    15     9    10   ar
    16    10    11   ar
    17    11    12   ar
    18    12    15    1
    19    15    17    1
    20    17    18    1
    21    17    19    2
    22    17    20    2
    23    12    13   ar
    24    13    14   ar
    25     4     5    1
    26     5     6    1
    27    28    29   ar
    28    29    24   ar
    29     6     1    1
    30    14     9   ar
    31    15    16    1
