@<TRIPOS>MOLECULE
*****
 40 46 0 0 0
SMALL
GASTEIGER

@<TRIPOS>ATOM
      1 C         138.3608  141.5778  164.4307 C.3     1  UNL1        0.0955
      2 C         138.0958  141.5824  162.9542 C.3     1  UNL1        0.0287
      3 C         138.0272  142.8821  162.2086 C.3     1  UNL1        0.0193
      4 C         138.2235  144.1773  162.9394 C.3     1  UNL1        0.0700
      5 C         138.4884  144.1726  164.4158 C.3     1  UNL1        0.0193
      6 C         138.5571  142.8729  165.1615 C.3     1  UNL1        0.0287
      7 C         138.2700  143.4901  163.3909 C.3     1  UNL1        0.1562
      8 O         138.3321  142.3149  164.0651 O.3     1  UNL1       -0.3571
      9 N         138.1548  145.4770  162.1938 N.3     1  UNL1       -0.2938
     10 H         137.6715  146.1394  162.8005 H       1  UNL1        0.1235
     11 C         139.4168  146.1480  161.7387 C.3     1  UNL1        0.0966
     12 C         140.7228  145.4130  161.8043 C.ar    1  UNL1        0.0082
     13 C         141.6061  145.5595  163.0077 C.ar    1  UNL1        0.0126
     14 C         142.9121  144.8245  163.0734 C.ar    1  UNL1        0.0943
     15 CL        143.7955  144.9710  164.2768 Cl      1  UNL1       -0.0790
     16 C         143.3347  143.9430  161.9357 C.ar    1  UNL1        0.1836
     17 C         142.4513  143.7965  160.7323 C.ar    1  UNL1        0.1834
     18 C         141.1453  144.5314  160.6666 C.ar    1  UNL1        0.0919
     19 CL        140.2619  144.3849  159.4632 Cl      1  UNL1       -0.0793
     20 O         142.8737  142.9150  159.5946 O.3     1  UNL1       -0.4675
     21 C         144.1797  142.1800  159.6603 C.3     1  UNL1        0.2527
     22 C         145.0631  142.3265  160.8636 C.3     1  UNL1        0.2527
     23 O         144.6406  143.2080  162.0014 O.3     1  UNL1       -0.4675
     24 C         138.4294  140.2780  165.1763 C.3     1  UNL1        0.0604
     25 O         138.7723  140.8726  170.2568 O.2     1  UNL1       -0.2670
     26 C         140.0082  140.2731  169.6541 C.ar    1  UNL1        0.2611
     27 C         141.1730  139.9175  170.5298 C.ar    1  UNL1        0.0623
     28 C         142.4089  139.3181  169.9271 C.ar    1  UNL1        0.0254
     29 C         142.4800  139.0743  168.4488 C.ar    1  UNL1        0.0972
     30 N         143.5712  138.4969  167.5849 N.ar    1  UNL1       -0.2400
     31 C         143.4971  138.3120  166.0982 C.ar    1  UNL1        0.1282
     32 C         142.2598  138.7166  165.3529 C.ar    1  UNL1        0.1588
     33 F         142.1856  138.5318  163.8662 F       1  UNL1       -0.2027
     34 C         141.0966  139.3060  166.0944 C.ar    1  UNL1        0.0500
     35 C         141.3153  139.4299  167.5732 C.ar    1  UNL1        0.0806
     36 N         140.0794  140.0293  168.1758 N.ar    1  UNL1       -0.2915
     37 C         139.0969  140.2759  167.0695 C.3     1  UNL1        0.1402
     38 C         139.7256  139.8289  165.7831 C.3     1  UNL1        0.1335
     39 O         140.0834  139.4758  164.3698 O.3     1  UNL1       -0.3806
     40 H         139.3429  139.6976  163.7838 H       1  UNL1        0.2108
@<TRIPOS>BOND
     1    25    26    2
     2    26    27   ar
     3    27    28   ar
     4    28    29   ar
     5    29    30   ar
     6    30    31   ar
     7    31    32   ar
     8    32    33    1
     9    32    34   ar
    10    34    35   ar
    11    35    36   ar
    12    36    37    1
    13    37    38    1
    14    38    39    1
    15    38    24    1
    16    24     1    1
    17     1     2    1
    18     2     3    1
    19     3     4    1
    20     4     9    1
    21     9    11    1
    22    11    12    1
    23    12    13   ar
    24    13    14   ar
    25    14    15    1
    26    14    16   ar
    27    16    17   ar
    28    17    18   ar
    29    18    19    1
    30    17    20    1
    31    20    21    1
    32    21    22    1
    33    22    23    1
    34     4     5    1
    35     5     6    1
    36     4     7    1
    37     7     8    1
    38    36    26   ar
    39     6     1    1
    40    35    29   ar
    41     8     1    1
    42    38    34    1
    43    18    12   ar
    44    23    16    1
    45    39    40    1
    46     9    10    1
@<TRIPOS>MOLECULE
*****
 40 46 0 0 0
SMALL
GASTEIGER

@<TRIPOS>ATOM
      1 C         138.3804  141.6565  164.5809 C.3     1  UNL1        0.0955
      2 C         139.3990  142.5273  165.2550 C.3     1  UNL1        0.0287
      3 C         140.2985  141.9516  166.3083 C.3     1  UNL1        0.0193
      4 C         140.1796  140.5052  166.6875 C.3     1  UNL1        0.0700
      5 C         139.1610  139.6345  166.0134 C.3     1  UNL1        0.0193
      6 C         138.2614  140.2101  164.9601 C.3     1  UNL1        0.0287
      7 C         139.6645  140.7756  166.1046 C.3     1  UNL1        0.1562
      8 O         138.8512  141.2961  165.1523 O.3     1  UNL1       -0.3571
      9 N         141.0792  139.9296  167.7407 N.3     1  UNL1       -0.2938
     10 H         140.5567  139.1823  168.1980 H       1  UNL1        0.1235
     11 C         142.4107  139.3551  167.3575 C.3     1  UNL1        0.0966
     12 C         142.9473  139.5645  165.9725 C.ar    1  UNL1        0.0082
     13 C         143.8114  140.7539  165.6749 C.ar    1  UNL1        0.0126
     14 C         144.3480  140.9634  164.2899 C.ar    1  UNL1        0.0943
     15 CL        145.2121  142.1529  163.9923 Cl      1  UNL1       -0.0790
     16 C         144.0205  139.9835  163.2025 C.ar    1  UNL1        0.1836
     17 C         143.1564  138.7941  163.5001 C.ar    1  UNL1        0.1834
     18 C         142.6198  138.5846  164.8851 C.ar    1  UNL1        0.0919
     19 CL        141.7557  137.3951  165.1826 Cl      1  UNL1       -0.0793
     20 O         142.8289  137.8141  162.4128 O.3     1  UNL1       -0.4675
     21 C         143.3656  138.0236  161.0278 C.3     1  UNL1        0.2527
     22 C         144.2296  139.2129  160.7301 C.3     1  UNL1        0.2527
     23 O         144.5572  140.1930  161.8175 O.3     1  UNL1       -0.4675
     24 C         137.4808  142.2321  163.5276 C.3     1  UNL1        0.0604
     25 O         140.3472  146.1550  161.8915 O.2     1  UNL1       -0.2670
     26 C         140.0657  145.1486  160.8155 C.ar    1  UNL1        0.2611
     27 C         140.6104  145.3561  159.4334 C.ar    1  UNL1        0.0623
     28 C         140.3288  144.3498  158.3573 C.ar    1  UNL1        0.0254
     29 C         139.5026  143.1358  158.6633 C.ar    1  UNL1        0.0972
     30 N         139.0678  141.9816  157.7979 N.ar    1  UNL1       -0.2400
     31 C         138.2302  140.8225  158.2506 C.ar    1  UNL1        0.1282
     32 C         137.7553  140.7501  159.6716 C.ar    1  UNL1        0.1588
     33 F         136.9177  139.5911  160.1243 F       1  UNL1       -0.2027
     34 C         138.1181  141.8368  160.6399 C.ar    1  UNL1        0.0500
     35 C         138.9579  142.9283  160.0454 C.ar    1  UNL1        0.0806
     36 N         139.2394  143.9347  161.1215 N.ar    1  UNL1       -0.2915
     37 C         138.5736  143.4652  162.3809 C.3     1  UNL1        0.1402
     38 C         137.8806  142.1686  162.0833 C.3     1  UNL1        0.1335
     39 O         137.1040  140.8853  162.0876 O.3     1  UNL1       -0.3806
     40 H         136.7412  140.7298  162.9736 H       1  UNL1        0.2108
@<TRIPOS>BOND
     1    25    26    2
     2    26    27   ar
     3    27    28   ar
     4    28    29   ar
     5    29    30   ar
     6    30    31   ar
     7    31    32   ar
     8    32    33    1
     9    32    34   ar
    10    34    35   ar
    11    35    36   ar
    12    36    37    1
    13    37    38    1
    14    38    39    1
    15    38    24    1
    16    24     1    1
    17     1     2    1
    18     2     3    1
    19     3     4    1
    20     4     9    1
    21     9    11    1
    22    11    12    1
    23    12    13   ar
    24    13    14   ar
    25    14    15    1
    26    14    16   ar
    27    16    17   ar
    28    17    18   ar
    29    18    19    1
    30    17    20    1
    31    20    21    1
    32    21    22    1
    33    22    23    1
    34     4     5    1
    35     5     6    1
    36     4     7    1
    37     7     8    1
    38    36    26   ar
    39     6     1    1
    40    35    29   ar
    41     8     1    1
    42    38    34    1
    43    18    12   ar
    44    23    16    1
    45    39    40    1
    46     9    10    1
@<TRIPOS>MOLECULE
*****
 40 46 0 0 0
SMALL
GASTEIGER

@<TRIPOS>ATOM
      1 C         137.8546  140.8043  161.7826 C.3     1  UNL1        0.0955
      2 C         137.5886  140.6327  163.2489 C.3     1  UNL1        0.0287
      3 C         137.5324  141.8331  164.1466 C.3     1  UNL1        0.0193
      4 C         137.7423  143.2052  163.5780 C.3     1  UNL1        0.0700
      5 C         138.0083  143.3769  162.1118 C.3     1  UNL1        0.0193
      6 C         138.0645  142.1764  161.2141 C.3     1  UNL1        0.0287
      7 C         137.7823  142.5775  163.0466 C.3     1  UNL1        0.1562
      8 O         137.8331  141.4920  162.2350 O.3     1  UNL1       -0.3571
      9 N         137.6861  144.4057  164.4756 N.3     1  UNL1       -0.2938
     10 H         136.9786  144.2108  165.1841 H       1  UNL1        0.1235
     11 C         138.9173  144.8547  165.2053 C.3     1  UNL1        0.0966
     12 C         140.2149  144.1296  165.0039 C.ar    1  UNL1        0.0082
     13 C         140.6182  143.0374  165.9496 C.ar    1  UNL1        0.0126
     14 C         141.9157  142.3122  165.7483 C.ar    1  UNL1        0.0943
     15 CL        142.3191  141.2200  166.6941 Cl      1  UNL1       -0.0790
     16 C         142.8099  142.6791  164.6013 C.ar    1  UNL1        0.1836
     17 C         142.4066  143.7713  163.6556 C.ar    1  UNL1        0.1834
     18 C         141.1091  144.4965  163.8569 C.ar    1  UNL1        0.0919
     19 CL        140.7057  145.5887  162.9111 Cl      1  UNL1       -0.0793
     20 O         143.3007  144.1384  162.5085 O.3     1  UNL1       -0.4675
     21 C         144.5982  143.4131  162.3072 C.3     1  UNL1        0.2527
     22 C         145.0016  142.3210  163.2529 C.3     1  UNL1        0.2527
     23 O         144.1075  141.9539  164.4000 O.3     1  UNL1       -0.4675
     24 C         137.9108  139.6039  160.8850 C.3     1  UNL1        0.0604
     25 O         141.8015  138.7479  164.1118 O.2     1  UNL1       -0.2670
     26 C         142.1829  138.5580  162.6736 C.ar    1  UNL1        0.2611
     27 C         143.5835  138.1581  162.3156 C.ar    1  UNL1        0.0623
     28 C         143.9649  137.9683  160.8774 C.ar    1  UNL1        0.0254
     29 C         142.9457  138.1783  159.7971 C.ar    1  UNL1        0.0972
     30 N         143.0431  138.0615  158.2980 N.ar    1  UNL1       -0.2400
     31 C         141.9218  138.3060  157.3321 C.ar    1  UNL1        0.1282
     32 C         140.5673  138.7025  157.8402 C.ar    1  UNL1        0.1588
     33 F         139.4461  138.9470  156.8742 F       1  UNL1       -0.2027
     34 C         140.3341  138.8545  159.3141 C.ar    1  UNL1        0.0500
     35 C         141.5450  138.5782  160.1551 C.ar    1  UNL1        0.0806
     36 N         141.1636  138.7681  161.5933 N.ar    1  UNL1       -0.2915
     37 C         139.7170  139.1617  161.6412 C.3     1  UNL1        0.1402
     38 C         139.2043  139.2151  160.2325 C.3     1  UNL1        0.1335
     39 O         138.4212  139.3498  158.9603 O.3     1  UNL1       -0.3806
     40 H         137.5096  139.6085  159.1675 H       1  UNL1        0.2108
@<TRIPOS>BOND
     1    25    26    2
     2    26    27   ar
     3    27    28   ar
     4    28    29   ar
     5    29    30   ar
     6    30    31   ar
     7    31    32   ar
     8    32    33    1
     9    32    34   ar
    10    34    35   ar
    11    35    36   ar
    12    36    37    1
    13    37    38    1
    14    38    39    1
    15    38    24    1
    16    24     1    1
    17     1     2    1
    18     2     3    1
    19     3     4    1
    20     4     9    1
    21     9    11    1
    22    11    12    1
    23    12    13   ar
    24    13    14   ar
    25    14    15    1
    26    14    16   ar
    27    16    17   ar
    28    17    18   ar
    29    18    19    1
    30    17    20    1
    31    20    21    1
    32    21    22    1
    33    22    23    1
    34     4     5    1
    35     5     6    1
    36     4     7    1
    37     7     8    1
    38    36    26   ar
    39     6     1    1
    40    35    29   ar
    41     8     1    1
    42    38    34    1
    43    18    12   ar
    44    23    16    1
    45    39    40    1
    46     9    10    1
@<TRIPOS>MOLECULE
*****
 40 46 0 0 0
SMALL
GASTEIGER

@<TRIPOS>ATOM
      1 C         139.2862  143.2725  163.7555 C.3     1  UNL1        0.0955
      2 C         138.2928  142.4031  163.0430 C.3     1  UNL1        0.0287
      3 C         137.7949  141.1459  163.6922 C.3     1  UNL1        0.0193
      4 C         138.2903  140.7579  165.0539 C.3     1  UNL1        0.0700
      5 C         139.2836  141.6273  165.7663 C.3     1  UNL1        0.0193
      6 C         139.7816  142.8846  165.1172 C.3     1  UNL1        0.0287
      7 C         138.5921  141.4562  164.7385 C.3     1  UNL1        0.1562
      8 O         139.0423  142.5930  164.1515 O.3     1  UNL1       -0.3571
      9 N         137.7925  139.5007  165.7031 N.3     1  UNL1       -0.2938
     10 H         136.8577  139.3285  165.3330 H       1  UNL1        0.1235
     11 C         138.5615  138.2221  165.5493 C.3     1  UNL1        0.0966
     12 C         139.8689  138.2170  164.8140 C.ar    1  UNL1        0.0082
     13 C         141.1484  138.4617  165.5576 C.ar    1  UNL1        0.0126
     14 C         142.4559  138.4567  164.8224 C.ar    1  UNL1        0.0943
     15 CL        143.7354  138.7014  165.5660 Cl      1  UNL1       -0.0790
     16 C         142.4839  138.2069  163.3437 C.ar    1  UNL1        0.1836
     17 C         141.2044  137.9621  162.6001 C.ar    1  UNL1        0.1834
     18 C         139.8969  137.9672  163.3352 C.ar    1  UNL1        0.0919
     19 CL        138.6174  137.7224  162.5916 Cl      1  UNL1       -0.0793
     20 O         141.2323  137.7123  161.1213 O.3     1  UNL1       -0.4675
     21 C         142.5398  137.7072  160.3861 C.3     1  UNL1        0.2527
     22 C         143.8192  137.9519  161.1296 C.3     1  UNL1        0.2527
     23 O         143.7914  138.2018  162.6085 O.3     1  UNL1       -0.4675
     24 C         139.7840  144.5298  163.1063 C.3     1  UNL1        0.0604
     25 O         143.8893  141.4628  163.2583 O.2     1  UNL1       -0.2670
     26 C         143.7024  142.1229  161.9244 C.ar    1  UNL1        0.2611
     27 C         144.6698  141.8509  160.8108 C.ar    1  UNL1        0.0623
     28 C         144.4829  142.5110  159.4769 C.ar    1  UNL1        0.0254
     29 C         143.3286  143.4431  159.2565 C.ar    1  UNL1        0.0972
     30 N         142.9007  144.2314  158.0458 N.ar    1  UNL1       -0.2400
     31 C         141.7055  145.1349  157.9743 C.ar    1  UNL1        0.1282
     32 C         140.8243  145.3094  159.1756 C.ar    1  UNL1        0.1588
     33 F         139.6291  146.2129  159.1041 F       1  UNL1       -0.2027
     34 C         141.1382  144.5802  160.4483 C.ar    1  UNL1        0.0500
     35 C         142.3611  143.7151  160.3701 C.ar    1  UNL1        0.0806
     36 N         142.5480  143.0550  161.7040 N.ar    1  UNL1       -0.2915
     37 C         141.4407  143.5122  162.6066 C.3     1  UNL1        0.1402
     38 C         140.5694  144.4548  161.8306 C.3     1  UNL1        0.1335
     39 O         139.5339  145.4131  161.3212 O.3     1  UNL1       -0.3806
     40 H         138.8956  145.6042  162.0262 H       1  UNL1        0.2108
@<TRIPOS>BOND
     1    25    26    2
     2    26    27   ar
     3    27    28   ar
     4    28    29   ar
     5    29    30   ar
     6    30    31   ar
     7    31    32   ar
     8    32    33    1
     9    32    34   ar
    10    34    35   ar
    11    35    36   ar
    12    36    37    1
    13    37    38    1
    14    38    39    1
    15    38    24    1
    16    24     1    1
    17     1     2    1
    18     2     3    1
    19     3     4    1
    20     4     9    1
    21     9    11    1
    22    11    12    1
    23    12    13   ar
    24    13    14   ar
    25    14    15    1
    26    14    16   ar
    27    16    17   ar
    28    17    18   ar
    29    18    19    1
    30    17    20    1
    31    20    21    1
    32    21    22    1
    33    22    23    1
    34     4     5    1
    35     5     6    1
    36     4     7    1
    37     7     8    1
    38    36    26   ar
    39     6     1    1
    40    35    29   ar
    41     8     1    1
    42    38    34    1
    43    18    12   ar
    44    23    16    1
    45    39    40    1
    46     9    10    1
@<TRIPOS>MOLECULE
*****
 40 46 0 0 0
SMALL
GASTEIGER

@<TRIPOS>ATOM
      1 C         137.8970  140.5989  162.0947 C.3     1  UNL1        0.0955
      2 C         137.7461  140.4566  163.5803 C.3     1  UNL1        0.0287
      3 C         137.6794  141.6785  164.4479 C.3     1  UNL1        0.0193
      4 C         137.7635  143.0426  163.8298 C.3     1  UNL1        0.0700
      5 C         137.9144  143.1849  162.3442 C.3     1  UNL1        0.0193
      6 C         137.9811  141.9631  161.4766 C.3     1  UNL1        0.0287
      7 C         137.8046  142.4024  163.3135 C.3     1  UNL1        0.1562
      8 O         137.8650  141.2976  162.5291 O.3     1  UNL1       -0.3571
      9 N         137.6967  144.2645  164.6973 N.3     1  UNL1       -0.2938
     10 H         137.0640  144.0452  165.4667 H       1  UNL1        0.1235
     11 C         138.9487  144.8180  165.3107 C.3     1  UNL1        0.0966
     12 C         140.2600  144.1220  165.0964 C.ar    1  UNL1        0.0082
     13 C         140.7227  143.0781  166.0692 C.ar    1  UNL1        0.0126
     14 C         142.0340  142.3820  165.8550 C.ar    1  UNL1        0.0943
     15 CL        142.4967  141.3382  166.8278 Cl      1  UNL1       -0.0790
     16 C         142.8827  142.7297  164.6681 C.ar    1  UNL1        0.1836
     17 C         142.4200  143.7736  163.6953 C.ar    1  UNL1        0.1834
     18 C         141.1087  144.4697  163.9095 C.ar    1  UNL1        0.0919
     19 CL        140.6460  145.5135  162.9367 Cl      1  UNL1       -0.0793
     20 O         143.2685  144.1213  162.5083 O.3     1  UNL1       -0.4675
     21 C         144.5799  143.4252  162.2941 C.3     1  UNL1        0.2527
     22 C         145.0426  142.3814  163.2668 C.3     1  UNL1        0.2527
     23 O         144.1940  142.0336  164.4539 O.3     1  UNL1       -0.4675
     24 C         137.9638  139.3771  161.2271 C.3     1  UNL1        0.0604
     25 O         138.0684  139.7356  156.1141 O.2     1  UNL1       -0.2670
     26 C         139.3634  139.2466  156.6920 C.ar    1  UNL1        0.2611
     27 C         140.5137  138.9216  155.7859 C.ar    1  UNL1        0.0623
     28 C         141.8087  138.4325  156.3637 C.ar    1  UNL1        0.0254
     29 C         141.9532  138.2684  157.8477 C.ar    1  UNL1        0.0972
     30 N         143.1127  137.8053  158.6913 N.ar    1  UNL1       -0.2400
     31 C         143.1089  137.6913  160.1869 C.ar    1  UNL1        0.1282
     32 C         141.8779  138.0539  160.9636 C.ar    1  UNL1        0.1588
     33 F         141.8741  137.9398  162.4593 F       1  UNL1       -0.2027
     34 C         140.6508  138.5306  160.2447 C.ar    1  UNL1        0.0500
     35 C         140.8029  138.5934  158.7537 C.ar    1  UNL1        0.0806
     36 N         139.5079  139.0824  158.1759 N.ar    1  UNL1       -0.2915
     37 C         138.5555  139.3219  159.3097 C.3     1  UNL1        0.1402
     38 C         139.2618  138.9808  160.5883 C.3     1  UNL1        0.1335
     39 O         139.6968  138.7226  162.0004 O.3     1  UNL1       -0.3806
     40 H         138.9669  138.9264  162.6060 H       1  UNL1        0.2108
@<TRIPOS>BOND
     1    25    26    2
     2    26    27   ar
     3    27    28   ar
     4    28    29   ar
     5    29    30   ar
     6    30    31   ar
     7    31    32   ar
     8    32    33    1
     9    32    34   ar
    10    34    35   ar
    11    35    36   ar
    12    36    37    1
    13    37    38    1
    14    38    39    1
    15    38    24    1
    16    24     1    1
    17     1     2    1
    18     2     3    1
    19     3     4    1
    20     4     9    1
    21     9    11    1
    22    11    12    1
    23    12    13   ar
    24    13    14   ar
    25    14    15    1
    26    14    16   ar
    27    16    17   ar
    28    17    18   ar
    29    18    19    1
    30    17    20    1
    31    20    21    1
    32    21    22    1
    33    22    23    1
    34     4     5    1
    35     5     6    1
    36     4     7    1
    37     7     8    1
    38    36    26   ar
    39     6     1    1
    40    35    29   ar
    41     8     1    1
    42    38    34    1
    43    18    12   ar
    44    23    16    1
    45    39    40    1
    46     9    10    1
@<TRIPOS>MOLECULE
*****
 40 46 0 0 0
SMALL
GASTEIGER

@<TRIPOS>ATOM
      1 C         138.7049  139.0446  164.1447 C.3     1  UNL1        0.0955
      2 C         138.8419  137.9780  163.0988 C.3     1  UNL1        0.0287
      3 C         138.3491  138.2275  161.7042 C.3     1  UNL1        0.0193
      4 C         137.7194  139.5435  161.3554 C.3     1  UNL1        0.0700
      5 C         137.5825  140.6100  162.4013 C.3     1  UNL1        0.0193
      6 C         138.0752  140.3605  163.7959 C.3     1  UNL1        0.0287
      7 C         137.9745  139.4531  162.1331 C.3     1  UNL1        0.1562
      8 O         138.4201  139.2275  163.3941 O.3     1  UNL1       -0.3571
      9 N         137.2266  139.7930  159.9608 N.3     1  UNL1       -0.2938
     10 H         136.4050  140.3921  160.0416 H       1  UNL1        0.1235
     11 C         138.1309  140.4322  158.9491 C.3     1  UNL1        0.0966
     12 C         139.2956  141.2618  159.4023 C.ar    1  UNL1        0.0082
     13 C         139.1232  142.7338  159.6332 C.ar    1  UNL1        0.0126
     14 C         140.2879  143.5634  160.0864 C.ar    1  UNL1        0.0943
     15 CL        140.1154  145.0354  160.3174 Cl      1  UNL1       -0.0790
     16 C         141.6250  142.9209  160.3086 C.ar    1  UNL1        0.1836
     17 C         141.7974  141.4489  160.0776 C.ar    1  UNL1        0.1834
     18 C         140.6327  140.6193  159.6244 C.ar    1  UNL1        0.0919
     19 CL        140.8051  139.1473  159.3935 Cl      1  UNL1       -0.0793
     20 O         143.1344  140.8064  160.2998 O.3     1  UNL1       -0.4675
     21 C         144.2991  141.6359  160.7529 C.3     1  UNL1        0.2527
     22 C         144.1268  143.1079  160.9839 C.3     1  UNL1        0.2527
     23 O         142.7896  143.7505  160.7617 O.3     1  UNL1       -0.4675
     24 C         139.1977  138.7951  165.5393 C.3     1  UNL1        0.0604
     25 O         138.0937  140.1044  170.3714 O.2     1  UNL1       -0.2670
     26 C         139.3407  140.7616  169.8585 C.ar    1  UNL1        0.2611
     27 C         140.1171  141.6910  170.7437 C.ar    1  UNL1        0.0623
     28 C         141.3641  142.3481  170.2308 C.ar    1  UNL1        0.0254
     29 C         141.8348  142.0759  168.8329 C.ar    1  UNL1        0.0972
     30 N         143.0275  142.5848  168.0655 N.ar    1  UNL1       -0.2400
     31 C         143.3735  142.2183  166.6527 C.ar    1  UNL1        0.1282
     32 C         142.4977  141.2708  165.8878 C.ar    1  UNL1        0.1588
     33 F         142.8437  140.9043  164.4750 F       1  UNL1       -0.2027
     34 C         141.2759  140.6898  166.5356 C.ar    1  UNL1        0.0500
     35 C         141.0584  141.1465  167.9478 C.ar    1  UNL1        0.0806
     36 N         139.8114  140.4894  168.4606 N.ar    1  UNL1       -0.2915
     37 C         139.2582  139.6265  167.3654 C.3     1  UNL1        0.1402
     38 C         140.1633  139.7503  166.1757 C.3     1  UNL1        0.1335
     39 O         140.8666  139.6745  164.8530 O.3     1  UNL1       -0.3806
     40 H         140.3812  139.0774  164.2625 H       1  UNL1        0.2108
@<TRIPOS>BOND
     1    25    26    2
     2    26    27   ar
     3    27    28   ar
     4    28    29   ar
     5    29    30   ar
     6    30    31   ar
     7    31    32   ar
     8    32    33    1
     9    32    34   ar
    10    34    35   ar
    11    35    36   ar
    12    36    37    1
    13    37    38    1
    14    38    39    1
    15    38    24    1
    16    24     1    1
    17     1     2    1
    18     2     3    1
    19     3     4    1
    20     4     9    1
    21     9    11    1
    22    11    12    1
    23    12    13   ar
    24    13    14   ar
    25    14    15    1
    26    14    16   ar
    27    16    17   ar
    28    17    18   ar
    29    18    19    1
    30    17    20    1
    31    20    21    1
    32    21    22    1
    33    22    23    1
    34     4     5    1
    35     5     6    1
    36     4     7    1
    37     7     8    1
    38    36    26   ar
    39     6     1    1
    40    35    29   ar
    41     8     1    1
    42    38    34    1
    43    18    12   ar
    44    23    16    1
    45    39    40    1
    46     9    10    1
@<TRIPOS>MOLECULE
*****
 40 46 0 0 0
SMALL
GASTEIGER

@<TRIPOS>ATOM
      1 C         138.5384  138.8070  164.4064 C.3     1  UNL1        0.0955
      2 C         138.7954  137.9146  163.2284 C.3     1  UNL1        0.0287
      3 C         138.4923  138.3980  161.8411 C.3     1  UNL1        0.0193
      4 C         137.9323  139.7737  161.6318 C.3     1  UNL1        0.0700
      5 C         137.6753  140.6660  162.8099 C.3     1  UNL1        0.0193
      6 C         137.9784  140.1827  164.1972 C.3     1  UNL1        0.0287
      7 C         138.0825  139.5529  162.4108 C.3     1  UNL1        0.1562
      8 O         138.3565  139.1159  163.6652 O.3     1  UNL1       -0.3571
      9 N         137.6292  140.2571  160.2446 N.3     1  UNL1       -0.2938
     10 H         136.9571  141.0187  160.3384 H       1  UNL1        0.1235
     11 C         138.7365  140.7623  159.3679 C.3     1  UNL1        0.0966
     12 C         139.8221  141.6188  159.9493 C.ar    1  UNL1        0.0082
     13 C         139.5626  143.0688  160.2323 C.ar    1  UNL1        0.0126
     14 C         140.6481  143.9254  160.8137 C.ar    1  UNL1        0.0943
     15 CL        140.3887  145.3754  161.0968 Cl      1  UNL1       -0.0790
     16 C         141.9931  143.3320  161.1120 C.ar    1  UNL1        0.1836
     17 C         142.2525  141.8819  160.8289 C.ar    1  UNL1        0.1834
     18 C         141.1670  141.0254  160.2476 C.ar    1  UNL1        0.0919
     19 CL        141.4264  139.5754  159.9645 Cl      1  UNL1       -0.0793
     20 O         143.5973  141.2884  161.1272 O.3     1  UNL1       -0.4675
     21 C         144.6828  142.1450  161.7086 C.3     1  UNL1        0.2527
     22 C         144.4235  143.5949  161.9917 C.3     1  UNL1        0.2527
     23 O         143.0786  144.1885  161.6934 O.3     1  UNL1       -0.4675
     24 C         138.8415  138.3236  165.7937 C.3     1  UNL1        0.0604
     25 O         143.1866  140.6742  164.4238 O.2     1  UNL1       -0.2670
     26 C         142.7117  141.0741  165.7892 C.ar    1  UNL1        0.2611
     27 C         143.4956  142.0671  166.5950 C.ar    1  UNL1        0.0623
     28 C         143.0206  142.4670  167.9605 C.ar    1  UNL1        0.0254
     29 C         141.7617  141.8739  168.5201 C.ar    1  UNL1        0.0972
     30 N         141.0593  142.0853  169.8363 N.ar    1  UNL1       -0.2400
     31 C         139.7886  141.4114  170.2619 C.ar    1  UNL1        0.1282
     32 C         139.1136  140.4355  169.3443 C.ar    1  UNL1        0.1588
     33 F         137.8429  139.7616  169.7699 F       1  UNL1       -0.2027
     34 C         139.7092  140.1335  168.0012 C.ar    1  UNL1        0.0500
     35 C         140.9778  140.8809  167.7144 C.ar    1  UNL1        0.0806
     36 N         141.4527  140.4810  166.3489 N.ar    1  UNL1       -0.2915
     37 C         140.4777  139.4865  165.7918 C.3     1  UNL1        0.1402
     38 C         139.4002  139.2717  166.8130 C.3     1  UNL1        0.1335
     39 O         138.2058  138.8588  167.6211 O.3     1  UNL1       -0.3806
     40 H         137.6824  138.2150  167.1186 H       1  UNL1        0.2108
@<TRIPOS>BOND
     1    25    26    2
     2    26    27   ar
     3    27    28   ar
     4    28    29   ar
     5    29    30   ar
     6    30    31   ar
     7    31    32   ar
     8    32    33    1
     9    32    34   ar
    10    34    35   ar
    11    35    36   ar
    12    36    37    1
    13    37    38    1
    14    38    39    1
    15    38    24    1
    16    24     1    1
    17     1     2    1
    18     2     3    1
    19     3     4    1
    20     4     9    1
    21     9    11    1
    22    11    12    1
    23    12    13   ar
    24    13    14   ar
    25    14    15    1
    26    14    16   ar
    27    16    17   ar
    28    17    18   ar
    29    18    19    1
    30    17    20    1
    31    20    21    1
    32    21    22    1
    33    22    23    1
    34     4     5    1
    35     5     6    1
    36     4     7    1
    37     7     8    1
    38    36    26   ar
    39     6     1    1
    40    35    29   ar
    41     8     1    1
    42    38    34    1
    43    18    12   ar
    44    23    16    1
    45    39    40    1
    46     9    10    1
@<TRIPOS>MOLECULE
*****
 40 46 0 0 0
SMALL
GASTEIGER

@<TRIPOS>ATOM
      1 C         138.5169  138.4239  163.1143 C.3     1  UNL1        0.0955
      2 C         138.8685  137.4092  164.1617 C.3     1  UNL1        0.0287
      3 C         138.8997  137.8045  165.6083 C.3     1  UNL1        0.0193
      4 C         138.5793  139.2145  166.0076 C.3     1  UNL1        0.0700
      5 C         138.2277  140.2290  164.9603 C.3     1  UNL1        0.0193
      6 C         138.1965  139.8338  163.5136 C.3     1  UNL1        0.0287
      7 C         138.5491  139.0450  165.2023 C.3     1  UNL1        0.1562
      8 O         138.5210  138.6875  163.8943 O.3     1  UNL1       -0.3571
      9 N         138.6105  139.6098  167.4543 N.3     1  UNL1       -0.2938
     10 H         138.4509  138.7599  167.9953 H       1  UNL1        0.1235
     11 C         139.8327  140.2644  168.0266 C.3     1  UNL1        0.0966
     12 C         141.0426  140.4767  167.1657 C.ar    1  UNL1        0.0082
     13 C         142.0183  139.3572  166.9543 C.ar    1  UNL1        0.0126
     14 C         143.2282  139.5694  166.0934 C.ar    1  UNL1        0.0943
     15 CL        144.2040  138.4500  165.8820 Cl      1  UNL1       -0.0790
     16 C         143.4624  140.9011  165.4439 C.ar    1  UNL1        0.1836
     17 C         142.4867  142.0205  165.6554 C.ar    1  UNL1        0.1834
     18 C         141.2768  141.8083  166.5163 C.ar    1  UNL1        0.0919
     19 CL        140.3010  142.9278  166.7277 Cl      1  UNL1       -0.0793
     20 O         142.7207  143.3522  165.0060 O.3     1  UNL1       -0.4675
     21 C         143.9306  143.5644  164.1451 C.3     1  UNL1        0.2527
     22 C         144.9064  142.4451  163.9336 C.3     1  UNL1        0.2527
     23 O         144.6723  141.1133  164.5831 O.3     1  UNL1       -0.4675
     24 C         138.4857  138.0285  161.6677 C.3     1  UNL1        0.0604
     25 O         137.0539  140.6826  157.5218 O.2     1  UNL1       -0.2670
     26 C         138.5355  140.4584  157.5888 C.ar    1  UNL1        0.2611
     27 C         139.4249  140.9943  156.5064 C.ar    1  UNL1        0.0623
     28 C         140.9066  140.7702  156.5735 C.ar    1  UNL1        0.0254
     29 C         141.4988  140.0100  157.7229 C.ar    1  UNL1        0.0972
     30 N         142.9235  139.6403  158.0455 N.ar    1  UNL1       -0.2400
     31 C         143.3694  138.8655  159.2500 C.ar    1  UNL1        0.1282
     32 C         142.3597  138.3919  160.2531 C.ar    1  UNL1        0.1588
     33 F         142.8056  137.6171  161.4576 F       1  UNL1       -0.2027
     34 C         140.9041  138.6931  160.0517 C.ar    1  UNL1        0.0500
     35 C         140.6094  139.4741  158.8054 C.ar    1  UNL1        0.0806
     36 N         139.1278  139.6983  158.7383 N.ar    1  UNL1       -0.2915
     37 C         138.5068  139.0558  159.9432 C.3     1  UNL1        0.1402
     38 C         139.6046  138.4346  160.7549 C.3     1  UNL1        0.1335
     39 O         140.4686  137.7285  161.7574 O.3     1  UNL1       -0.3806
     40 H         139.9135  137.3726  162.4688 H       1  UNL1        0.2108
@<TRIPOS>BOND
     1    25    26    2
     2    26    27   ar
     3    27    28   ar
     4    28    29   ar
     5    29    30   ar
     6    30    31   ar
     7    31    32   ar
     8    32    33    1
     9    32    34   ar
    10    34    35   ar
    11    35    36   ar
    12    36    37    1
    13    37    38    1
    14    38    39    1
    15    38    24    1
    16    24     1    1
    17     1     2    1
    18     2     3    1
    19     3     4    1
    20     4     9    1
    21     9    11    1
    22    11    12    1
    23    12    13   ar
    24    13    14   ar
    25    14    15    1
    26    14    16   ar
    27    16    17   ar
    28    17    18   ar
    29    18    19    1
    30    17    20    1
    31    20    21    1
    32    21    22    1
    33    22    23    1
    34     4     5    1
    35     5     6    1
    36     4     7    1
    37     7     8    1
    38    36    26   ar
    39     6     1    1
    40    35    29   ar
    41     8     1    1
    42    38    34    1
    43    18    12   ar
    44    23    16    1
    45    39    40    1
    46     9    10    1
@<TRIPOS>MOLECULE
*****
 40 46 0 0 0
SMALL
GASTEIGER

@<TRIPOS>ATOM
      1 C         143.6391  139.0390  161.9515 C.3     1  UNL1        0.0955
      2 C         143.8372  138.8106  163.4208 C.3     1  UNL1        0.0287
      3 C         144.5429  139.8410  164.2516 C.3     1  UNL1        0.0193
      4 C         145.0506  141.0998  163.6132 C.3     1  UNL1        0.0700
      5 C         144.8526  141.3282  162.1440 C.3     1  UNL1        0.0193
      6 C         144.1468  140.2979  161.3131 C.3     1  UNL1        0.0287
      7 C         144.6699  140.5641  163.1170 C.3     1  UNL1        0.1562
      8 O         144.0318  139.6324  162.3658 O.3     1  UNL1       -0.3571
      9 N         145.7564  142.1302  164.4440 N.3     1  UNL1       -0.2938
     10 H         146.3782  142.6394  163.8159 H       1  UNL1        0.1235
     11 C         144.9641  143.1582  165.1960 C.3     1  UNL1        0.0966
     12 C         143.4878  143.2855  164.9627 C.ar    1  UNL1        0.0082
     13 C         142.5252  142.5000  165.8032 C.ar    1  UNL1        0.0126
     14 C         141.0490  142.6272  165.5699 C.ar    1  UNL1        0.0943
     15 CL        140.0864  141.8417  166.4104 Cl      1  UNL1       -0.0790
     16 C         140.5352  143.5400  164.4962 C.ar    1  UNL1        0.1836
     17 C         141.4978  144.3255  163.6557 C.ar    1  UNL1        0.1834
     18 C         142.9741  144.1982  163.8889 C.ar    1  UNL1        0.0919
     19 CL        143.9366  144.9837  163.0485 Cl      1  UNL1       -0.0793
     20 O         140.9842  145.2382  162.5820 O.3     1  UNL1       -0.4675
     21 C         139.5079  145.3655  162.3487 C.3     1  UNL1        0.2527
     22 C         138.5453  144.5801  163.1891 C.3     1  UNL1        0.2527
     23 O         139.0589  143.6672  164.2630 O.3     1  UNL1       -0.4675
     24 C         142.9334  138.0086  161.1207 C.3     1  UNL1        0.0604
     25 O         143.9348  137.1497  156.1667 O.2     1  UNL1       -0.2670
     26 C         142.5918  137.7792  156.3906 C.ar    1  UNL1        0.2611
     27 C         141.7040  138.0881  155.2216 C.ar    1  UNL1        0.0623
     28 C         140.3610  138.7175  155.4455 C.ar    1  UNL1        0.0254
     29 C         139.9057  139.0381  156.8383 C.ar    1  UNL1        0.0972
     30 N         138.6331  139.6592  157.3531 N.ar    1  UNL1       -0.2400
     31 C         138.3150  139.9214  158.7953 C.ar    1  UNL1        0.1282
     32 C         139.3064  139.5568  159.8603 C.ar    1  UNL1        0.1588
     33 F         138.9882  139.8190  161.3025 F       1  UNL1       -0.2027
     34 C         140.6159  138.9301  159.4831 C.ar    1  UNL1        0.0500
     35 C         140.7935  138.7292  158.0072 C.ar    1  UNL1        0.0806
     36 N         142.1365  138.0997  157.7834 N.ar    1  UNL1       -0.2915
     37 C         142.7889  137.9116  159.1209 C.3     1  UNL1        0.1402
     38 C         141.8492  138.4248  160.1714 C.3     1  UNL1        0.1335
     39 O         141.1361  138.8510  161.4203 O.3     1  UNL1       -0.3806
     40 H         141.6927  138.6604  162.1915 H       1  UNL1        0.2108
@<TRIPOS>BOND
     1    25    26    2
     2    26    27   ar
     3    27    28   ar
     4    28    29   ar
     5    29    30   ar
     6    30    31   ar
     7    31    32   ar
     8    32    33    1
     9    32    34   ar
    10    34    35   ar
    11    35    36   ar
    12    36    37    1
    13    37    38    1
    14    38    39    1
    15    38    24    1
    16    24     1    1
    17     1     2    1
    18     2     3    1
    19     3     4    1
    20     4     9    1
    21     9    11    1
    22    11    12    1
    23    12    13   ar
    24    13    14   ar
    25    14    15    1
    26    14    16   ar
    27    16    17   ar
    28    17    18   ar
    29    18    19    1
    30    17    20    1
    31    20    21    1
    32    21    22    1
    33    22    23    1
    34     4     5    1
    35     5     6    1
    36     4     7    1
    37     7     8    1
    38    36    26   ar
    39     6     1    1
    40    35    29   ar
    41     8     1    1
    42    38    34    1
    43    18    12   ar
    44    23    16    1
    45    39    40    1
    46     9    10    1
