@<TRIPOS>MOLECULE
*****
 38 41 0 0 0
SMALL
GASTEIGER

@<TRIPOS>ATOM
      1 C         141.3861  141.9443  165.3343 C.ar    1  UNL1        0.0502
      2 C         142.0982  143.1875  164.8902 C.ar    1  UNL1        0.0143
      3 C         141.8755  143.7261  163.5081 C.ar    1  UNL1       -0.0030
      4 C         140.9408  143.0215  162.5701 C.ar    1  UNL1       -0.0223
      5 C         140.2287  141.7782  163.0142 C.ar    1  UNL1       -0.0034
      6 C         140.4514  141.2396  164.3964 C.ar    1  UNL1        0.0089
      7 C         140.7181  143.5601  161.1879 C.3     1  UNL1        0.0257
      8 C         141.1166  144.9682  160.8585 C.3     1  UNL1        0.0260
      9 C         140.8939  145.5069  159.4763 C.3     1  UNL1        0.0953
     10 N         140.2727  144.6374  158.4236 N.am    1  UNL1       -0.2642
     11 C         140.0500  145.1760  157.0415 C.2     1  UNL1        0.3040
     12 O         139.4288  144.3066  155.9888 O.2     1  UNL1       -0.2526
     13 N         140.4486  146.5840  156.7121 N.am    1  UNL1       -0.2862
     14 C         139.8742  143.2293  158.7531 C.3     1  UNL1        0.0953
     15 C         140.0969  142.6907  160.1352 C.3     1  UNL1        0.0260
     16 H         140.8563  147.1547  157.4030 H       1  UNL1        0.1511
     17 C         140.2259  147.1227  155.3299 C.3     1  UNL1        0.1226
     18 C         138.8487  147.5291  154.8962 C.3     1  UNL1        0.1584
     19 O         137.7655  146.4985  154.7766 O.3     1  UNL1       -0.3802
     20 H         137.9849  145.8802  154.0620 H       1  UNL1        0.2105
     21 C         139.7394  139.9963  164.8406 C.2     1  UNL1       -0.0253
     22 C         138.6185  140.0881  165.8332 C.2     1  UNL1       -0.0303
     23 C         137.9065  138.8449  166.2774 C.3     1  UNL1        0.0257
     24 C         138.3153  137.5098  165.7290 C.3     1  UNL1        0.0050
     25 C         139.4361  137.4181  164.7364 C.3     1  UNL1        0.0050
     26 C         140.1482  138.6614  164.2922 C.3     1  UNL1        0.0261
     27 C         142.5478  140.2557  166.9310 C.2     1  UNL1        0.2837
     28 O         143.2640  139.6444  165.7633 O.2     1  UNL1       -0.2665
     29 N         141.6088  141.4056  166.7165 N.am    1  UNL1       -0.2779
     30 H         141.1387  141.8068  167.4828 H       1  UNL1        0.1553
     31 C         143.3092  138.2248  170.1498 C.ar    1  UNL1        0.1469
     32 C         142.9171  139.5513  170.7300 C.ar    1  UNL1        0.1282
     33 N         142.5842  140.4735  169.5949 N.ar    1  UNL1       -0.2205
     34 C         142.7704  139.7170  168.3131 C.ar    1  UNL1        0.1958
     35 N         143.2185  138.3272  168.6560 N.ar    1  UNL1       -0.3257
     36 H         143.4181  137.6084  168.0135 H       1  UNL1        0.1682
     37 N         144.1304  135.7937  171.7040 N.1     1  UNL1       -0.1893
     38 C         143.7198  137.0092  170.9269 C.1     1  UNL1        0.1194
@<TRIPOS>BOND
     1    37    38    3
     2    38    31    1
     3    31    32   ar
     4    32    33   ar
     5    33    34   ar
     6    34    27    1
     7    27    28    2
     8    27    29   am
     9    29     1    1
    10     1     2   ar
    11     2     3   ar
    12     3     4   ar
    13     4     7    1
    14     7     8    1
    15     8     9    1
    16     9    10    1
    17    10    11   am
    18    11    12    2
    19    11    13   am
    20    13    17    1
    21    17    18    1
    22    18    19    1
    23    10    14    1
    24    14    15    1
    25     4     5   ar
    26     5     6   ar
    27     6    21    1
    28    21    22    2
    29    22    23    1
    30    23    24    1
    31    24    25    1
    32    25    26    1
    33    34    35   ar
    34    35    31   ar
    35     6     1   ar
    36    26    21    1
    37    15     7    1
    38    29    30    1
    39    13    16    1
    40    19    20    1
    41    35    36    1
@<TRIPOS>MOLECULE
*****
 38 41 0 0 0
SMALL
GASTEIGER

@<TRIPOS>ATOM
      1 C         141.9947  140.6086  163.8937 C.ar    1  UNL1        0.0502
      2 C         143.1470  139.7555  163.4529 C.ar    1  UNL1        0.0143
      3 C         143.7815  139.9861  162.1135 C.ar    1  UNL1       -0.0030
      4 C         143.2637  141.0697  161.2148 C.ar    1  UNL1       -0.0223
      5 C         142.1114  141.9228  161.6556 C.ar    1  UNL1       -0.0034
      6 C         141.4769  141.6923  162.9951 C.ar    1  UNL1        0.0089
      7 C         143.8982  141.3002  159.8753 C.3     1  UNL1        0.0257
      8 C         144.7657  142.5037  159.6534 C.3     1  UNL1        0.0260
      9 C         145.4002  142.7342  158.3139 C.3     1  UNL1        0.0953
     10 N         145.1673  141.7612  157.1963 N.am    1  UNL1       -0.2642
     11 C         145.8018  141.9917  155.8568 C.2     1  UNL1        0.3040
     12 O         145.5688  141.0187  154.7391 O.2     1  UNL1       -0.2526
     13 N         146.6692  143.1951  155.6349 N.am    1  UNL1       -0.2862
     14 C         144.2998  140.5578  157.4182 C.3     1  UNL1        0.0953
     15 C         143.6653  140.3273  158.7576 C.3     1  UNL1        0.0260
     16 H         146.8221  143.8337  156.3685 H       1  UNL1        0.1511
     17 C         147.3038  143.4256  154.2954 C.3     1  UNL1        0.1226
     18 C         146.7722  144.4949  153.3877 C.3     1  UNL1        0.1584
     19 O         147.5218  145.7843  153.2283 O.3     1  UNL1       -0.3802
     20 H         147.5161  146.2677  154.0693 H       1  UNL1        0.2105
     21 C         140.3245  142.5454  163.4360 C.2     1  UNL1       -0.0253
     22 C         140.5778  143.8125  164.1977 C.2     1  UNL1       -0.0303
     23 C         139.4255  144.6657  164.6386 C.3     1  UNL1        0.0257
     24 C         138.0199  144.2517  164.3177 C.3     1  UNL1        0.0050
     25 C         137.7666  142.9845  163.5560 C.3     1  UNL1        0.0050
     26 C         138.9190  142.1314  163.1151 C.3     1  UNL1        0.0261
     27 C         141.8508  141.1300  166.4349 C.2     1  UNL1        0.2837
     28 O         142.9760  142.1123  166.2970 O.2     1  UNL1       -0.2665
     29 N         141.3601  140.3781  165.2333 N.am    1  UNL1       -0.2779
     30 H         140.6216  139.7334  165.3237 H       1  UNL1        0.1553
     31 C         139.6128  140.3094  169.4981 C.ar    1  UNL1        0.1469
     32 C         140.8669  140.7803  170.1732 C.ar    1  UNL1        0.1282
     33 N         141.8578  141.1450  169.1079 N.ar    1  UNL1       -0.2205
     34 C         141.2163  140.8995  167.7744 C.ar    1  UNL1        0.1958
     35 N         139.8288  140.3831  168.0156 N.ar    1  UNL1       -0.3257
     36 H         139.1747  140.1359  167.3225 H       1  UNL1        0.1682
     37 N         137.1119  139.3829  170.8719 N.1     1  UNL1       -0.1893
     38 C         138.3624  139.8461  170.1850 C.1     1  UNL1        0.1194
@<TRIPOS>BOND
     1    37    38    3
     2    38    31    1
     3    31    32   ar
     4    32    33   ar
     5    33    34   ar
     6    34    27    1
     7    27    28    2
     8    27    29   am
     9    29     1    1
    10     1     2   ar
    11     2     3   ar
    12     3     4   ar
    13     4     7    1
    14     7     8    1
    15     8     9    1
    16     9    10    1
    17    10    11   am
    18    11    12    2
    19    11    13   am
    20    13    17    1
    21    17    18    1
    22    18    19    1
    23    10    14    1
    24    14    15    1
    25     4     5   ar
    26     5     6   ar
    27     6    21    1
    28    21    22    2
    29    22    23    1
    30    23    24    1
    31    24    25    1
    32    25    26    1
    33    34    35   ar
    34    35    31   ar
    35     6     1   ar
    36    26    21    1
    37    15     7    1
    38    29    30    1
    39    13    16    1
    40    19    20    1
    41    35    36    1
@<TRIPOS>MOLECULE
*****
 38 41 0 0 0
SMALL
GASTEIGER

@<TRIPOS>ATOM
      1 C         139.9154  142.7956  159.6018 C.ar    1  UNL1        0.0502
      2 C         139.2342  142.5614  158.2861 C.ar    1  UNL1        0.0143
      3 C         139.2245  143.6403  157.2441 C.ar    1  UNL1       -0.0030
      4 C         139.8959  144.9534  157.5178 C.ar    1  UNL1       -0.0223
      5 C         140.5771  145.1876  158.8335 C.ar    1  UNL1       -0.0034
      6 C         140.5868  144.1087  159.8755 C.ar    1  UNL1        0.0089
      7 C         139.8861  146.0323  156.4757 C.3     1  UNL1        0.0257
      8 C         139.1484  147.3135  156.7294 C.3     1  UNL1        0.0260
      9 C         139.1386  148.3924  155.6873 C.3     1  UNL1        0.0953
     10 N         139.8666  148.1901  154.3915 N.am    1  UNL1       -0.2642
     11 C         139.8568  149.2690  153.3495 C.2     1  UNL1        0.3040
     12 O         140.5848  149.0667  152.0537 O.2     1  UNL1       -0.2526
     13 N         139.1191  150.5501  153.6032 N.am    1  UNL1       -0.2862
     14 C         140.6044  146.9089  154.1378 C.3     1  UNL1        0.0953
     15 C         140.6141  145.8301  155.1799 C.3     1  UNL1        0.0260
     16 H         138.6413  150.6828  154.4537 H       1  UNL1        0.1511
     17 C         139.1093  151.6290  152.5611 C.3     1  UNL1        0.1226
     18 C         138.6659  153.0159  152.9216 C.3     1  UNL1        0.1584
     19 O         137.2285  153.4108  152.7545 O.3     1  UNL1       -0.3802
     20 H         136.9997  153.4070  151.8119 H       1  UNL1        0.2105
     21 C         141.2680  144.3429  161.1913 C.2     1  UNL1       -0.0253
     22 C         142.7153  143.9869  161.3604 C.2     1  UNL1       -0.0303
     23 C         143.3965  144.2210  162.6761 C.3     1  UNL1        0.0257
     24 C         142.6304  144.8113  163.8227 C.3     1  UNL1        0.0050
     25 C         141.1832  145.1673  163.6536 C.3     1  UNL1        0.0050
     26 C         140.5020  144.9331  162.3379 C.3     1  UNL1        0.0261
     27 C         138.8015  141.6189  161.6328 C.2     1  UNL1        0.2837
     28 O         137.6681  142.6001  161.5795 O.2     1  UNL1       -0.2665
     29 N         139.9252  141.7167  160.6439 N.am    1  UNL1       -0.2779
     30 H         140.6691  141.0727  160.6788 H       1  UNL1        0.1553
     31 C         138.4867  139.3429  164.7610 C.ar    1  UNL1        0.1469
     32 C         139.1658  138.4168  163.7959 C.ar    1  UNL1        0.1282
     33 N         139.3664  139.1567  162.5066 N.ar    1  UNL1       -0.2205
     34 C         138.8113  140.5400  162.6748 C.ar    1  UNL1        0.1958
     35 N         138.2676  140.6551  164.0681 N.ar    1  UNL1       -0.3257
     36 H         137.8418  141.4519  164.4591 H       1  UNL1        0.1682
     37 N         137.7042  138.6858  167.5816 N.1     1  UNL1       -0.1893
     38 C         138.0954  139.0144  166.1713 C.1     1  UNL1        0.1194
@<TRIPOS>BOND
     1    37    38    3
     2    38    31    1
     3    31    32   ar
     4    32    33   ar
     5    33    34   ar
     6    34    27    1
     7    27    28    2
     8    27    29   am
     9    29     1    1
    10     1     2   ar
    11     2     3   ar
    12     3     4   ar
    13     4     7    1
    14     7     8    1
    15     8     9    1
    16     9    10    1
    17    10    11   am
    18    11    12    2
    19    11    13   am
    20    13    17    1
    21    17    18    1
    22    18    19    1
    23    10    14    1
    24    14    15    1
    25     4     5   ar
    26     5     6   ar
    27     6    21    1
    28    21    22    2
    29    22    23    1
    30    23    24    1
    31    24    25    1
    32    25    26    1
    33    34    35   ar
    34    35    31   ar
    35     6     1   ar
    36    26    21    1
    37    15     7    1
    38    29    30    1
    39    13    16    1
    40    19    20    1
    41    35    36    1
@<TRIPOS>MOLECULE
*****
 38 41 0 0 0
SMALL
GASTEIGER

@<TRIPOS>ATOM
      1 C         140.9617  139.5106  163.9392 C.ar    1  UNL1        0.0502
      2 C         141.5573  138.1960  163.5307 C.ar    1  UNL1        0.0143
      3 C         141.6180  137.8185  162.0802 C.ar    1  UNL1       -0.0030
      4 C         141.0832  138.7557  161.0383 C.ar    1  UNL1       -0.0223
      5 C         140.4876  140.0704  161.4468 C.ar    1  UNL1       -0.0034
      6 C         140.4269  140.4478  162.8973 C.ar    1  UNL1        0.0089
      7 C         141.1439  138.3782  159.5878 C.3     1  UNL1        0.0257
      8 C         139.8912  138.3658  158.7630 C.3     1  UNL1        0.0260
      9 C         139.9519  137.9882  157.3125 C.3     1  UNL1        0.0953
     10 N         141.2655  137.6232  156.6869 N.am    1  UNL1       -0.2642
     11 C         141.3262  137.2457  155.2365 C.2     1  UNL1        0.3040
     12 O         142.6398  136.8807  154.6109 O.2     1  UNL1       -0.2526
     13 N         140.0735  137.2332  154.4117 N.am    1  UNL1       -0.2862
     14 C         142.5183  137.6357  157.5118 C.3     1  UNL1        0.0953
     15 C         142.4575  138.0132  158.9622 C.3     1  UNL1        0.0260
     16 H         139.2114  137.4728  154.8223 H       1  UNL1        0.1511
     17 C         140.1342  136.8557  152.9612 C.3     1  UNL1        0.1226
     18 C         140.3068  135.4189  152.5667 C.3     1  UNL1        0.1584
     19 O         141.6337  134.7445  152.7521 O.3     1  UNL1       -0.3802
     20 H         142.2891  135.1536  152.1656 H       1  UNL1        0.2105
     21 C         139.8313  141.7626  163.3059 C.2     1  UNL1       -0.0253
     22 C         140.7045  142.9762  163.4270 C.2     1  UNL1       -0.0303
     23 C         140.1090  144.2908  163.8356 C.3     1  UNL1        0.0257
     24 C         138.6402  144.3919  164.1230 C.3     1  UNL1        0.0050
     25 C         137.7670  143.1783  164.0019 C.3     1  UNL1        0.0050
     26 C         138.3626  141.8636  163.5933 C.3     1  UNL1        0.0261
     27 C         139.6951  139.5319  166.2075 C.2     1  UNL1        0.2837
     28 O         138.5499  138.7981  165.5748 O.2     1  UNL1       -0.2665
     29 N         140.9010  139.8882  165.3897 N.am    1  UNL1       -0.2779
     30 H         141.6526  140.3697  165.8049 H       1  UNL1        0.1553
     31 C         140.2027  140.8373  169.8273 C.ar    1  UNL1        0.1469
     32 C         138.8788  140.1432  169.9525 C.ar    1  UNL1        0.1282
     33 N         138.5275  139.5697  168.6118 N.ar    1  UNL1       -0.2205
     34 C         139.6343  139.9094  167.6579 C.ar    1  UNL1        0.1958
     35 N         140.6695  140.6928  168.4092 N.ar    1  UNL1       -0.3257
     36 H         141.5082  141.0495  168.0369 H       1  UNL1        0.1682
     37 N         141.6606  142.2641  172.0271 N.1     1  UNL1       -0.1893
     38 C         140.9317  141.5507  170.9272 C.1     1  UNL1        0.1194
@<TRIPOS>BOND
     1    37    38    3
     2    38    31    1
     3    31    32   ar
     4    32    33   ar
     5    33    34   ar
     6    34    27    1
     7    27    28    2
     8    27    29   am
     9    29     1    1
    10     1     2   ar
    11     2     3   ar
    12     3     4   ar
    13     4     7    1
    14     7     8    1
    15     8     9    1
    16     9    10    1
    17    10    11   am
    18    11    12    2
    19    11    13   am
    20    13    17    1
    21    17    18    1
    22    18    19    1
    23    10    14    1
    24    14    15    1
    25     4     5   ar
    26     5     6   ar
    27     6    21    1
    28    21    22    2
    29    22    23    1
    30    23    24    1
    31    24    25    1
    32    25    26    1
    33    34    35   ar
    34    35    31   ar
    35     6     1   ar
    36    26    21    1
    37    15     7    1
    38    29    30    1
    39    13    16    1
    40    19    20    1
    41    35    36    1
@<TRIPOS>MOLECULE
*****
 38 41 0 0 0
SMALL
GASTEIGER

@<TRIPOS>ATOM
      1 C         142.9360  142.2379  163.7257 C.ar    1  UNL1        0.0502
      2 C         144.2382  141.8725  163.0771 C.ar    1  UNL1        0.0143
      3 C         144.4171  142.0551  161.5990 C.ar    1  UNL1       -0.0030
      4 C         143.2938  142.6030  160.7696 C.ar    1  UNL1       -0.0223
      5 C         141.9916  142.9684  161.4182 C.ar    1  UNL1       -0.0034
      6 C         141.8127  142.7859  162.8962 C.ar    1  UNL1        0.0089
      7 C         143.4728  142.7856  159.2915 C.3     1  UNL1        0.0257
      8 C         144.6913  142.2370  158.6101 C.3     1  UNL1        0.0260
      9 C         144.8702  142.4195  157.1320 C.3     1  UNL1        0.0953
     10 N         143.8306  143.1506  156.3353 N.am    1  UNL1       -0.2642
     11 C         144.0095  143.3332  154.8573 C.2     1  UNL1        0.3040
     12 O         142.9700  144.0643  154.0606 O.2     1  UNL1       -0.2526
     13 N         145.2280  142.7846  154.1760 N.am    1  UNL1       -0.2862
     14 C         142.6121  143.6993  157.0168 C.3     1  UNL1        0.0953
     15 C         142.4332  143.5167  158.4948 C.3     1  UNL1        0.0260
     16 H         145.9103  142.3047  154.6989 H       1  UNL1        0.1511
     17 C         145.4070  142.9672  152.6979 C.3     1  UNL1        0.1226
     18 C         145.9306  144.2660  152.1605 C.3     1  UNL1        0.1584
     19 O         145.2365  145.5519  152.4989 O.3     1  UNL1       -0.3802
     20 H         144.3519  145.5563  152.1008 H       1  UNL1        0.2105
     21 C         140.5105  143.1513  163.5449 C.2     1  UNL1       -0.0253
     22 C         139.3722  142.1744  163.5444 C.2     1  UNL1       -0.0303
     23 C         138.0700  142.5398  164.1930 C.3     1  UNL1        0.0257
     24 C         137.9060  143.8821  164.8422 C.3     1  UNL1        0.0050
     25 C         139.0443  144.8590  164.8427 C.3     1  UNL1        0.0050
     26 C         140.3466  144.4936  164.1941 C.3     1  UNL1        0.0261
     27 C         142.5909  140.6783  165.7747 C.2     1  UNL1        0.2837
     28 O         142.6036  139.4837  164.8675 O.2     1  UNL1       -0.2665
     29 N         142.7570  142.0554  165.2038 N.am    1  UNL1       -0.2779
     30 H         142.7487  142.8394  165.7991 H       1  UNL1        0.1553
     31 C         141.7725  140.8695  169.5640 C.ar    1  UNL1        0.1469
     32 C         142.5005  139.5600  169.4904 C.ar    1  UNL1        0.1282
     33 N         142.8957  139.3290  168.0620 N.ar    1  UNL1       -0.2205
     34 C         142.4119  140.4957  167.2527 C.ar    1  UNL1        0.1958
     35 N         141.7177  141.4477  168.1810 N.ar    1  UNL1       -0.3257
     36 H         141.2996  142.3021  167.9272 H       1  UNL1        0.1682
     37 N         140.6270  142.1134  172.0420 N.1     1  UNL1       -0.1893
     38 C         141.1997  141.4914  170.8030 C.1     1  UNL1        0.1194
@<TRIPOS>BOND
     1    37    38    3
     2    38    31    1
     3    31    32   ar
     4    32    33   ar
     5    33    34   ar
     6    34    27    1
     7    27    28    2
     8    27    29   am
     9    29     1    1
    10     1     2   ar
    11     2     3   ar
    12     3     4   ar
    13     4     7    1
    14     7     8    1
    15     8     9    1
    16     9    10    1
    17    10    11   am
    18    11    12    2
    19    11    13   am
    20    13    17    1
    21    17    18    1
    22    18    19    1
    23    10    14    1
    24    14    15    1
    25     4     5   ar
    26     5     6   ar
    27     6    21    1
    28    21    22    2
    29    22    23    1
    30    23    24    1
    31    24    25    1
    32    25    26    1
    33    34    35   ar
    34    35    31   ar
    35     6     1   ar
    36    26    21    1
    37    15     7    1
    38    29    30    1
    39    13    16    1
    40    19    20    1
    41    35    36    1
@<TRIPOS>MOLECULE
*****
 38 41 0 0 0
SMALL
GASTEIGER

@<TRIPOS>ATOM
      1 C         143.0897  140.2259  161.5160 C.ar    1  UNL1        0.0502
      2 C         143.8836  140.3384  162.7836 C.ar    1  UNL1        0.0143
      3 C         143.1824  140.3462  164.1095 C.ar    1  UNL1       -0.0030
      4 C         141.6872  140.2414  164.1678 C.ar    1  UNL1       -0.0223
      5 C         140.8932  140.1288  162.9002 C.ar    1  UNL1       -0.0034
      6 C         141.5945  140.1211  161.5743 C.ar    1  UNL1        0.0089
      7 C         140.9859  140.2491  165.4938 C.3     1  UNL1        0.0257
      8 C         139.8168  139.3393  165.7293 C.3     1  UNL1        0.0260
      9 C         139.1155  139.3471  167.0553 C.3     1  UNL1        0.0953
     10 N         139.5834  140.2647  168.1458 N.am    1  UNL1       -0.2642
     11 C         138.8822  140.2725  169.4717 C.2     1  UNL1        0.3040
     12 O         139.3500  141.1900  170.5622 O.2     1  UNL1       -0.2526
     13 N         137.7131  139.3627  169.7072 N.am    1  UNL1       -0.2862
     14 C         140.7525  141.1745  167.9103 C.3     1  UNL1        0.0953
     15 C         141.4537  141.1667  166.5843 C.3     1  UNL1        0.0260
     16 H         137.4061  138.7604  168.9915 H       1  UNL1        0.1511
     17 C         137.0118  139.3704  171.0332 C.3     1  UNL1        0.1226
     18 C         135.9709  138.3341  171.3372 C.3     1  UNL1        0.1584
     19 O         136.3810  136.9182  171.6149 O.3     1  UNL1       -0.3802
     20 H         136.7671  136.5304  170.8140 H       1  UNL1        0.2105
     21 C         140.8006  140.0086  160.3065 C.2     1  UNL1       -0.0253
     22 C         140.2176  141.2379  159.6751 C.2     1  UNL1       -0.0303
     23 C         139.4237  141.1255  158.4074 C.3     1  UNL1        0.0257
     24 C         139.2128  139.7835  157.7711 C.3     1  UNL1        0.0050
     25 C         139.7958  138.5541  158.4025 C.3     1  UNL1        0.0050
     26 C         140.5897  138.6667  159.6703 C.3     1  UNL1        0.0261
     27 C         143.9739  141.4989  159.4308 C.2     1  UNL1        0.2837
     28 O         143.4556  142.7873  159.9977 O.2     1  UNL1       -0.2665
     29 N         143.7910  140.2181  160.1900 N.am    1  UNL1       -0.2779
     30 H         144.1312  139.3725  159.8180 H       1  UNL1        0.1553
     31 C         145.9259  142.2043  156.1510 C.ar    1  UNL1        0.1469
     32 C         145.5826  140.7544  155.9778 C.ar    1  UNL1        0.1282
     33 N         144.8096  140.3137  157.1854 N.ar    1  UNL1       -0.2205
     34 C         144.6751  141.4912  158.1049 C.ar    1  UNL1        0.1958
     35 N         145.3651  142.6596  157.4656 N.ar    1  UNL1       -0.3257
     36 H         145.4372  143.5662  157.8427 H       1  UNL1        0.1682
     37 N         147.4642  143.8963  154.2092 N.1     1  UNL1       -0.1893
     38 C         146.6951  143.0503  155.1801 C.1     1  UNL1        0.1194
@<TRIPOS>BOND
     1    37    38    3
     2    38    31    1
     3    31    32   ar
     4    32    33   ar
     5    33    34   ar
     6    34    27    1
     7    27    28    2
     8    27    29   am
     9    29     1    1
    10     1     2   ar
    11     2     3   ar
    12     3     4   ar
    13     4     7    1
    14     7     8    1
    15     8     9    1
    16     9    10    1
    17    10    11   am
    18    11    12    2
    19    11    13   am
    20    13    17    1
    21    17    18    1
    22    18    19    1
    23    10    14    1
    24    14    15    1
    25     4     5   ar
    26     5     6   ar
    27     6    21    1
    28    21    22    2
    29    22    23    1
    30    23    24    1
    31    24    25    1
    32    25    26    1
    33    34    35   ar
    34    35    31   ar
    35     6     1   ar
    36    26    21    1
    37    15     7    1
    38    29    30    1
    39    13    16    1
    40    19    20    1
    41    35    36    1
@<TRIPOS>MOLECULE
*****
 38 41 0 0 0
SMALL
GASTEIGER

@<TRIPOS>ATOM
      1 C         142.0372  140.4865  163.2316 C.ar    1  UNL1        0.0502
      2 C         143.0266  139.4714  162.7410 C.ar    1  UNL1        0.0143
      3 C         142.8274  138.8134  161.4079 C.ar    1  UNL1       -0.0030
      4 C         141.6388  139.1704  160.5654 C.ar    1  UNL1       -0.0223
      5 C         140.6495  140.1855  161.0559 C.ar    1  UNL1       -0.0034
      6 C         140.8487  140.8436  162.3890 C.ar    1  UNL1        0.0089
      7 C         141.4397  138.5123  159.2322 C.3     1  UNL1        0.0257
      8 C         142.5843  137.8101  158.5639 C.3     1  UNL1        0.0260
      9 C         142.3852  137.1520  157.2307 C.3     1  UNL1        0.0953
     10 N         141.0413  137.1961  156.5659 N.am    1  UNL1       -0.2642
     11 C         140.8421  136.5380  155.2328 C.2     1  UNL1        0.3040
     12 O         139.4982  136.5821  154.5679 O.2     1  UNL1       -0.2526
     13 N         141.9868  135.8359  154.5645 N.am    1  UNL1       -0.2862
     14 C         139.8966  137.8983  157.2342 C.3     1  UNL1        0.0953
     15 C         140.0958  138.5564  158.5673 C.3     1  UNL1        0.0260
     16 H         142.8688  135.8070  155.0009 H       1  UNL1        0.1511
     17 C         141.7876  135.1778  153.2313 C.3     1  UNL1        0.1226
     18 C         141.9624  133.6944  153.0936 C.3     1  UNL1        0.1584
     19 O         141.4037  132.7733  154.1374 O.3     1  UNL1       -0.3802
     20 H         141.8700  132.9145  154.9762 H       1  UNL1        0.2105
     21 C         139.8593  141.8587  162.8797 C.2     1  UNL1       -0.0253
     22 C         139.9960  143.2963  162.4739 C.2     1  UNL1       -0.0303
     23 C         139.0067  144.3114  162.9645 C.3     1  UNL1        0.0257
     24 C         137.8806  143.8890  163.8609 C.3     1  UNL1        0.0050
     25 C         137.7439  142.4514  164.2667 C.3     1  UNL1        0.0050
     26 C         138.7333  141.4363  163.7761 C.3     1  UNL1        0.0261
     27 C         141.7527  140.4697  165.8140 C.2     1  UNL1        0.2837
     28 O         141.0700  139.1367  165.7301 O.2     1  UNL1       -0.2665
     29 N         142.2364  141.1446  164.5648 N.am    1  UNL1       -0.2779
     30 H         142.6845  142.0195  164.6198 H       1  UNL1        0.1553
     31 C         141.6241  141.8271  169.4480 C.ar    1  UNL1        0.1469
     32 C         142.8925  142.4537  168.9493 C.ar    1  UNL1        0.1282
     33 N         143.0950  142.0215  167.5273 N.ar    1  UNL1       -0.2205
     34 C         141.9519  141.1278  167.1472 C.ar    1  UNL1        0.1958
     35 N         141.0428  141.0076  168.3342 N.ar    1  UNL1       -0.3257
     36 H         140.2107  140.4831  168.3751 H       1  UNL1        0.1682
     37 N         140.4553  142.1552  172.1914 N.1     1  UNL1       -0.1893
     38 C         141.0397  141.9912  170.8197 C.1     1  UNL1        0.1194
@<TRIPOS>BOND
     1    37    38    3
     2    38    31    1
     3    31    32   ar
     4    32    33   ar
     5    33    34   ar
     6    34    27    1
     7    27    28    2
     8    27    29   am
     9    29     1    1
    10     1     2   ar
    11     2     3   ar
    12     3     4   ar
    13     4     7    1
    14     7     8    1
    15     8     9    1
    16     9    10    1
    17    10    11   am
    18    11    12    2
    19    11    13   am
    20    13    17    1
    21    17    18    1
    22    18    19    1
    23    10    14    1
    24    14    15    1
    25     4     5   ar
    26     5     6   ar
    27     6    21    1
    28    21    22    2
    29    22    23    1
    30    23    24    1
    31    24    25    1
    32    25    26    1
    33    34    35   ar
    34    35    31   ar
    35     6     1   ar
    36    26    21    1
    37    15     7    1
    38    29    30    1
    39    13    16    1
    40    19    20    1
    41    35    36    1
@<TRIPOS>MOLECULE
*****
 38 41 0 0 0
SMALL
GASTEIGER

@<TRIPOS>ATOM
      1 C         140.0795  144.8355  159.8828 C.ar    1  UNL1        0.0502
      2 C         140.2527  145.8595  160.9651 C.ar    1  UNL1        0.0143
      3 C         140.4694  145.4222  162.3835 C.ar    1  UNL1       -0.0030
      4 C         140.5128  143.9610  162.7195 C.ar    1  UNL1       -0.0223
      5 C         140.3396  142.9370  161.6372 C.ar    1  UNL1       -0.0034
      6 C         140.1229  143.3743  160.2189 C.ar    1  UNL1        0.0089
      7 C         140.7295  143.5238  164.1380 C.3     1  UNL1        0.0257
      8 C         142.0671  142.9951  164.5638 C.3     1  UNL1        0.0260
      9 C         142.2838  142.5579  165.9823 C.3     1  UNL1        0.0953
     10 N         141.1628  142.6494  166.9748 N.am    1  UNL1       -0.2642
     11 C         141.3795  142.2122  168.3932 C.2     1  UNL1        0.3040
     12 O         140.2586  142.3036  169.3858 O.2     1  UNL1       -0.2526
     13 N         142.7171  141.6835  168.8191 N.am    1  UNL1       -0.2862
     14 C         139.8252  143.1780  166.5489 C.3     1  UNL1        0.0953
     15 C         139.6086  143.6152  165.1305 C.3     1  UNL1        0.0260
     16 H         143.4527  141.6235  168.1676 H       1  UNL1        0.1511
     17 C         142.9337  141.2463  170.2375 C.3     1  UNL1        0.1226
     18 C         143.0197  139.7856  170.5673 C.3     1  UNL1        0.1584
     19 O         144.0894  139.2875  171.4933 O.3     1  UNL1       -0.3802
     20 H         144.9583  139.4121  171.0805 H       1  UNL1        0.2105
     21 C         139.9496  142.3503  159.1365 C.2     1  UNL1       -0.0253
     22 C         138.5834  141.8190  158.8185 C.2     1  UNL1       -0.0303
     23 C         138.4100  140.7950  157.7362 C.3     1  UNL1        0.0257
     24 C         139.6030  140.3023  156.9718 C.3     1  UNL1        0.0050
     25 C         140.9692  140.8337  157.2898 C.3     1  UNL1        0.0050
     26 C         141.1425  141.8577  158.3722 C.3     1  UNL1        0.0261
     27 C         141.0301  145.6985  157.6241 C.2     1  UNL1        0.2837
     28 O         142.4142  145.6871  158.2024 O.2     1  UNL1       -0.2665
     29 N         139.8628  145.2727  158.4643 N.am    1  UNL1       -0.2779
     30 H         138.9544  145.2802  158.0848 H       1  UNL1        0.1553
     31 C         140.3180  147.5010  154.2613 C.ar    1  UNL1        0.1469
     32 C         140.6423  146.1161  153.7848 C.ar    1  UNL1        0.1282
     33 N         140.9485  145.2724  154.9866 N.ar    1  UNL1       -0.2205
     34 C         140.8135  146.1357  156.2057 C.ar    1  UNL1        0.1958
     35 N         140.4238  147.5131  155.7575 N.ar    1  UNL1       -0.3257
     36 H         140.2654  148.2889  156.3425 H       1  UNL1        0.1682
     37 N         139.5863  149.8365  152.5263 N.1     1  UNL1       -0.1893
     38 C         139.9521  148.6688  153.3938 C.1     1  UNL1        0.1194
@<TRIPOS>BOND
     1    37    38    3
     2    38    31    1
     3    31    32   ar
     4    32    33   ar
     5    33    34   ar
     6    34    27    1
     7    27    28    2
     8    27    29   am
     9    29     1    1
    10     1     2   ar
    11     2     3   ar
    12     3     4   ar
    13     4     7    1
    14     7     8    1
    15     8     9    1
    16     9    10    1
    17    10    11   am
    18    11    12    2
    19    11    13   am
    20    13    17    1
    21    17    18    1
    22    18    19    1
    23    10    14    1
    24    14    15    1
    25     4     5   ar
    26     5     6   ar
    27     6    21    1
    28    21    22    2
    29    22    23    1
    30    23    24    1
    31    24    25    1
    32    25    26    1
    33    34    35   ar
    34    35    31   ar
    35     6     1   ar
    36    26    21    1
    37    15     7    1
    38    29    30    1
    39    13    16    1
    40    19    20    1
    41    35    36    1
@<TRIPOS>MOLECULE
*****
 38 41 0 0 0
SMALL
GASTEIGER

@<TRIPOS>ATOM
      1 C         141.5450  144.7840  160.1901 C.ar    1  UNL1        0.0502
      2 C         140.9317  145.4995  161.3570 C.ar    1  UNL1        0.0143
      3 C         140.9414  144.8641  162.7157 C.ar    1  UNL1       -0.0030
      4 C         141.5644  143.5132  162.9075 C.ar    1  UNL1       -0.0223
      5 C         142.1778  142.7977  161.7406 C.ar    1  UNL1       -0.0034
      6 C         142.1681  143.4331  160.3819 C.ar    1  UNL1        0.0089
      7 C         141.5741  142.8778  164.2663 C.3     1  UNL1        0.0257
      8 C         140.2825  142.6294  164.9873 C.3     1  UNL1        0.0260
      9 C         140.2922  141.9939  166.3461 C.3     1  UNL1        0.0953
     10 N         141.5935  141.6070  166.9838 N.am    1  UNL1       -0.2642
     11 C         141.6033  140.9717  168.3425 C.2     1  UNL1        0.3040
     12 O         142.9046  140.5847  168.9803 O.2     1  UNL1       -0.2526
     13 N         140.3116  140.7232  169.0635 N.am    1  UNL1       -0.2862
     14 C         142.8852  141.8555  166.2627 C.3     1  UNL1        0.0953
     15 C         142.8755  142.4909  164.9040 C.3     1  UNL1        0.0260
     16 H         139.4575  140.9772  168.6449 H       1  UNL1        0.1511
     17 C         140.3213  140.0878  170.4223 C.3     1  UNL1        0.1226
     18 C         140.8843  140.8342  171.5953 C.3     1  UNL1        0.1584
     19 O         142.3313  140.6786  171.9587 O.3     1  UNL1       -0.3802
     20 H         142.4950  139.7685  172.2516 H       1  UNL1        0.2105
     21 C         142.7815  142.7175  159.2148 C.2     1  UNL1       -0.0253
     22 C         141.9375  141.8237  158.3553 C.2     1  UNL1       -0.0303
     23 C         142.5508  141.1082  157.1883 C.3     1  UNL1        0.0257
     24 C         144.0081  141.2865  156.8808 C.3     1  UNL1        0.0050
     25 C         144.8521  142.1803  157.7404 C.3     1  UNL1        0.0050
     26 C         144.2387  142.8958  158.9074 C.3     1  UNL1        0.0261
     27 C         140.4054  145.1459  157.8835 C.2     1  UNL1        0.2837
     28 O         139.2851  144.2370  158.2945 O.2     1  UNL1       -0.2665
     29 N         141.5354  145.4194  158.8313 N.am    1  UNL1       -0.2779
     30 H         142.2706  146.0159  158.5616 H       1  UNL1        0.1553
     31 C         140.1688  147.4101  154.7399 C.ar    1  UNL1        0.1469
     32 C         140.5926  146.1078  154.1278 C.ar    1  UNL1        0.1282
     33 N         140.7328  145.1011  155.2310 N.ar    1  UNL1       -0.2205
     34 C         140.3957  145.7812  156.5248 C.ar    1  UNL1        0.1958
     35 N         140.0471  147.2082  156.2212 N.ar    1  UNL1       -0.3257
     36 H         139.7846  147.8922  156.8788 H       1  UNL1        0.1682
     37 N         139.6549  149.9691  153.2608 N.1     1  UNL1       -0.1893
     38 C         139.9119  148.6896  154.0003 C.1     1  UNL1        0.1194
@<TRIPOS>BOND
     1    37    38    3
     2    38    31    1
     3    31    32   ar
     4    32    33   ar
     5    33    34   ar
     6    34    27    1
     7    27    28    2
     8    27    29   am
     9    29     1    1
    10     1     2   ar
    11     2     3   ar
    12     3     4   ar
    13     4     7    1
    14     7     8    1
    15     8     9    1
    16     9    10    1
    17    10    11   am
    18    11    12    2
    19    11    13   am
    20    13    17    1
    21    17    18    1
    22    18    19    1
    23    10    14    1
    24    14    15    1
    25     4     5   ar
    26     5     6   ar
    27     6    21    1
    28    21    22    2
    29    22    23    1
    30    23    24    1
    31    24    25    1
    32    25    26    1
    33    34    35   ar
    34    35    31   ar
    35     6     1   ar
    36    26    21    1
    37    15     7    1
    38    29    30    1
    39    13    16    1
    40    19    20    1
    41    35    36    1
