@<TRIPOS>MOLECULE
*****
 44 48 0 0 0
SMALL
GASTEIGER

@<TRIPOS>ATOM
      1 C         141.3044  140.9251  162.4817 C.3     1  UNL1        0.0807
      2 C         141.3764  140.6579  163.9560 C.ar    1  UNL1        0.0375
      3 C         141.0196  141.7392  164.9325 C.ar    1  UNL1        0.0023
      4 C         141.0915  141.4720  166.4068 C.ar    1  UNL1        0.0181
      5 C         140.7347  142.5532  167.3833 C.ar    1  UNL1        0.0082
      6 C         140.8066  142.2860  168.8575 C.ar    1  UNL1        0.0347
      7 BR        140.4498  143.3673  169.8341 Br      1  UNL1       -0.0490
      8 C         141.2354  140.9375  169.3552 C.ar    1  UNL1        0.0082
      9 C         141.5922  139.8562  168.3788 C.ar    1  UNL1        0.0197
     10 C         141.5202  140.1235  166.9046 C.ar    1  UNL1        0.0844
     11 N         141.8770  139.0422  165.9280 N.ar    1  UNL1       -0.2119
     12 C         141.8051  139.3094  164.4538 C.ar    1  UNL1        0.2211
     13 O         142.1619  138.2281  163.4772 O.3     1  UNL1       -0.4563
     14 C         141.0035  137.2752  163.4742 C.3     1  UNL1        0.2542
     15 C         140.1072  140.4786  161.6961 C.ar    1  UNL1        0.0213
     16 C         138.7265  140.8070  162.1816 C.ar    1  UNL1       -0.0007
     17 C         137.5292  140.3604  161.3960 C.ar    1  UNL1        0.0030
     18 C         137.7127  139.5854  160.1249 C.ar    1  UNL1        0.0400
     19 C         139.0935  139.2570  159.6394 C.ar    1  UNL1        0.1721
     20 C         140.2907  139.7036  160.4250 C.ar    1  UNL1        0.1687
     21 O         141.6714  139.3752  159.9395 O.3     1  UNL1       -0.4687
     22 C         141.8549  138.6002  158.6684 C.3     1  UNL1        0.2526
     23 C         140.6578  138.1537  157.8827 C.3     1  UNL1        0.2526
     24 O         139.2770  138.4821  158.3682 O.3     1  UNL1       -0.4684
     25 C         142.4297  141.6389  161.7931 C.3     1  UNL1        0.1162
     26 O         143.3439  140.4886  162.0947 O.3     1  UNL1       -0.3820
     27 H         144.2271  140.6758  161.7399 H       1  UNL1        0.2107
     28 C         140.0018  144.7351  162.3114 C.ar    1  UNL1        0.2271
     29 C         140.9160  143.5848  162.6130 C.ar    1  UNL1        0.0559
     30 C         141.5156  142.7893  161.4916 C.ar    1  UNL1        0.0117
     31 C         141.2009  143.1441  160.0685 C.ar    1  UNL1        0.0559
     32 C         140.2867  144.2945  159.7670 C.ar    1  UNL1        0.2271
     33 N         139.6872  145.0900  160.8884 N.ar    1  UNL1       -0.1767
     34 O         139.4023  145.5307  163.4330 O.3     1  UNL1       -0.4602
     35 C         137.8619  143.7695  164.5623 C.3     1  UNL1        0.0512
     36 C         138.9128  144.8345  164.6682 C.3     1  UNL1        0.2072
     37 O         139.9720  144.6493  158.3439 O.3     1  UNL1       -0.4602
     38 C         140.6030  145.8558  157.7146 C.3     1  UNL1        0.2072
     39 C         142.0851  145.8940  157.4862 C.3     1  UNL1        0.0512
     40 C         143.5551  142.3527  161.1045 C.3     1  UNL1        0.0491
     41 C         144.5116  143.1895  161.9013 C.3     1  UNL1        0.0750
     42 N         144.8383  142.8133  163.3161 N.3     1  UNL1       -0.2702
     43 C         145.8260  141.7187  163.5921 C.3     1  UNL1        0.0897
     44 C         144.1773  143.5317  164.4549 C.3     1  UNL1        0.0897
@<TRIPOS>BOND
     1    35    36    1
     2    36    34    1
     3    34    28    1
     4    28    29   ar
     5    29    30   ar
     6    30    25    1
     7    25    26    1
     8    25    40    1
     9    40    41    1
    10    41    42    1
    11    42    43    1
    12    42    44    1
    13    25     1    1
    14     1     2    1
    15     2     3   ar
    16     3     4   ar
    17     4     5   ar
    18     5     6   ar
    19     6     7    1
    20     6     8   ar
    21     8     9   ar
    22     9    10   ar
    23    10    11   ar
    24    11    12   ar
    25    12    13    1
    26    13    14    1
    27     1    15    1
    28    15    16   ar
    29    16    17   ar
    30    17    18   ar
    31    18    19   ar
    32    19    20   ar
    33    20    21    1
    34    21    22    1
    35    22    23    1
    36    23    24    1
    37    30    31   ar
    38    31    32   ar
    39    32    37    1
    40    37    38    1
    41    38    39    1
    42    32    33   ar
    43    33    28   ar
    44    12     2   ar
    45    20    15   ar
    46    10     4   ar
    47    24    19    1
    48    26    27    1
@<TRIPOS>MOLECULE
*****
 44 48 0 0 0
SMALL
GASTEIGER

@<TRIPOS>ATOM
      1 C         141.3009  140.9160  162.5012 C.3     1  UNL1        0.0807
      2 C         141.3702  140.6509  163.9760 C.ar    1  UNL1        0.0375
      3 C         141.0117  141.7337  164.9502 C.ar    1  UNL1        0.0023
      4 C         141.0810  141.4686  166.4251 C.ar    1  UNL1        0.0181
      5 C         140.7226  142.5513  167.3993 C.ar    1  UNL1        0.0082
      6 C         140.7919  142.2862  168.8740 C.ar    1  UNL1        0.0347
      7 BR        140.4334  143.3690  169.8484 Br      1  UNL1       -0.0490
      8 C         141.2196  140.9384  169.3745 C.ar    1  UNL1        0.0082
      9 C         141.5781  139.8557  168.4003 C.ar    1  UNL1        0.0197
     10 C         141.5088  140.1208  166.9256 C.ar    1  UNL1        0.0844
     11 N         141.8673  139.0381  165.9512 N.ar    1  UNL1       -0.2119
     12 C         141.7980  139.3032  164.4765 C.ar    1  UNL1        0.2211
     13 O         142.1564  138.2204  163.5021 O.3     1  UNL1       -0.4563
     14 C         140.9935  137.2731  163.4907 C.3     1  UNL1        0.2542
     15 C         140.1038  140.4710  161.7146 C.ar    1  UNL1        0.0213
     16 C         138.7230  140.7975  162.2012 C.ar    1  UNL1       -0.0007
     17 C         137.5258  140.3524  161.4147 C.ar    1  UNL1        0.0030
     18 C         137.7094  139.5809  160.1415 C.ar    1  UNL1        0.0400
     19 C         139.0902  139.2543  159.6549 C.ar    1  UNL1        0.1721
     20 C         140.2874  139.6994  160.4414 C.ar    1  UNL1        0.1687
     21 O         141.6681  139.3729  159.9548 O.3     1  UNL1       -0.4687
     22 C         141.8517  138.6013  158.6816 C.3     1  UNL1        0.2526
     23 C         140.6546  138.1563  157.8951 C.3     1  UNL1        0.2526
     24 O         139.2738  138.4828  158.3817 O.3     1  UNL1       -0.4684
     25 C         142.4288  141.6261  161.8130 C.3     1  UNL1        0.1162
     26 O         143.3372  140.4697  162.1086 O.3     1  UNL1       -0.3820
     27 H         144.2207  140.6533  161.7528 H       1  UNL1        0.2107
     28 C         140.2975  144.3015  159.8006 C.ar    1  UNL1        0.2271
     29 C         141.2059  143.1451  160.0963 C.ar    1  UNL1        0.0559
     30 C         141.5204  142.7825  161.5174 C.ar    1  UNL1        0.0117
     31 C         140.9264  143.5765  162.6429 C.ar    1  UNL1        0.0559
     32 C         140.0180  144.7329  162.3473 C.ar    1  UNL1        0.2271
     33 N         139.7035  145.0954  160.9262 N.ar    1  UNL1       -0.1767
     34 O         139.9830  144.6640  158.3794 O.3     1  UNL1       -0.4602
     35 C         140.3166  146.2275  156.3315 C.3     1  UNL1        0.0512
     36 C         140.5729  145.9028  157.7733 C.3     1  UNL1        0.2072
     37 O         139.4240  145.5269  163.4729 O.3     1  UNL1       -0.4602
     38 C         138.9023  144.8255  164.6918 C.3     1  UNL1        0.2072
     39 C         137.8690  143.7471  164.5520 C.3     1  UNL1        0.0512
     40 C         143.5567  142.3362  161.1248 C.3     1  UNL1        0.0491
     41 C         144.5087  143.1793  161.9203 C.3     1  UNL1        0.0750
     42 N         144.8435  142.8025  163.3331 N.3     1  UNL1       -0.2702
     43 C         145.8345  141.7094  163.6030 C.3     1  UNL1        0.0897
     44 C         144.1874  143.5190  164.4760 C.3     1  UNL1        0.0897
@<TRIPOS>BOND
     1    35    36    1
     2    36    34    1
     3    34    28    1
     4    28    29   ar
     5    29    30   ar
     6    30    25    1
     7    25    26    1
     8    25    40    1
     9    40    41    1
    10    41    42    1
    11    42    43    1
    12    42    44    1
    13    25     1    1
    14     1     2    1
    15     2     3   ar
    16     3     4   ar
    17     4     5   ar
    18     5     6   ar
    19     6     7    1
    20     6     8   ar
    21     8     9   ar
    22     9    10   ar
    23    10    11   ar
    24    11    12   ar
    25    12    13    1
    26    13    14    1
    27     1    15    1
    28    15    16   ar
    29    16    17   ar
    30    17    18   ar
    31    18    19   ar
    32    19    20   ar
    33    20    21    1
    34    21    22    1
    35    22    23    1
    36    23    24    1
    37    30    31   ar
    38    31    32   ar
    39    32    37    1
    40    37    38    1
    41    38    39    1
    42    32    33   ar
    43    33    28   ar
    44    12     2   ar
    45    20    15   ar
    46    10     4   ar
    47    24    19    1
    48    26    27    1
@<TRIPOS>MOLECULE
*****
 44 48 0 0 0
SMALL
GASTEIGER

@<TRIPOS>ATOM
      1 C         142.2861  141.1619  163.1700 C.3     1  UNL1        0.0807
      2 C         142.4960  141.4724  164.6224 C.ar    1  UNL1        0.0375
      3 C         141.6477  140.8030  165.6627 C.ar    1  UNL1        0.0023
      4 C         141.8577  141.1135  167.1152 C.ar    1  UNL1        0.0181
      5 C         141.0094  140.4440  168.1555 C.ar    1  UNL1        0.0082
      6 C         141.2194  140.7546  169.6078 C.ar    1  UNL1        0.0347
      7 BR        140.3711  140.0851  170.6482 Br      1  UNL1       -0.0490
      8 C         142.2776  141.7345  170.0199 C.ar    1  UNL1        0.0082
      9 C         143.1259  142.4040  168.9796 C.ar    1  UNL1        0.0197
     10 C         142.9159  142.0934  167.5273 C.ar    1  UNL1        0.0844
     11 N         143.7642  142.7629  166.4869 N.ar    1  UNL1       -0.2119
     12 C         143.5542  142.4524  165.0345 C.ar    1  UNL1        0.2211
     13 O         144.4025  143.1218  163.9941 O.3     1  UNL1       -0.4563
     14 C         143.9137  144.5375  163.9106 C.3     1  UNL1        0.2542
     15 C         141.6269  142.1694  162.2753 C.ar    1  UNL1        0.0213
     16 C         142.3178  142.6280  161.0254 C.ar    1  UNL1       -0.0007
     17 C         141.6587  143.6355  160.1307 C.ar    1  UNL1        0.0030
     18 C         140.3086  144.1844  160.4859 C.ar    1  UNL1        0.0400
     19 C         139.6177  143.7257  161.7358 C.ar    1  UNL1        0.1721
     20 C         140.2769  142.7182  162.6305 C.ar    1  UNL1        0.1687
     21 O         139.5860  142.2595  163.8804 O.3     1  UNL1       -0.4687
     22 C         138.2359  142.8084  164.2356 C.3     1  UNL1        0.2526
     23 C         137.5768  143.8158  163.3409 C.3     1  UNL1        0.2526
     24 O         138.2677  144.2745  162.0910 O.3     1  UNL1       -0.4684
     25 C         142.7353  139.8439  162.6123 C.3     1  UNL1        0.1162
     26 O         144.1508  140.3393  162.5816 O.3     1  UNL1       -0.3820
     27 H         144.7298  139.6425  162.2350 H       1  UNL1        0.2107
     28 C         139.3997  138.0979  163.8673 C.ar    1  UNL1        0.2271
     29 C         140.8152  138.5933  163.8367 C.ar    1  UNL1        0.0559
     30 C         141.3198  139.3484  162.6429 C.ar    1  UNL1        0.0117
     31 C         140.4089  139.6081  161.4798 C.ar    1  UNL1        0.0559
     32 C         138.9934  139.1127  161.5105 C.ar    1  UNL1        0.2271
     33 N         138.4888  138.3576  162.7042 N.ar    1  UNL1       -0.1767
     34 O         138.8951  137.3428  165.0612 O.3     1  UNL1       -0.4602
     35 C         138.0869  139.5645  166.1385 C.3     1  UNL1        0.0512
     36 C         138.1613  138.0664  166.1511 C.3     1  UNL1        0.2072
     37 O         138.0826  139.3724  160.3473 O.3     1  UNL1       -0.4602
     38 C         138.6192  140.0171  159.1038 C.3     1  UNL1        0.2072
     39 C         138.4210  141.4863  158.8752 C.3     1  UNL1        0.0512
     40 C         143.1845  138.5259  162.0545 C.3     1  UNL1        0.0491
     41 C         144.0723  138.4862  160.8461 C.3     1  UNL1        0.0750
     42 N         143.5200  138.8425  159.4978 N.3     1  UNL1       -0.2702
     43 C         143.8656  140.1602  158.8700 C.3     1  UNL1        0.0897
     44 C         142.6222  137.8810  158.7771 C.3     1  UNL1        0.0897
@<TRIPOS>BOND
     1    35    36    1
     2    36    34    1
     3    34    28    1
     4    28    29   ar
     5    29    30   ar
     6    30    25    1
     7    25    26    1
     8    25    40    1
     9    40    41    1
    10    41    42    1
    11    42    43    1
    12    42    44    1
    13    25     1    1
    14     1     2    1
    15     2     3   ar
    16     3     4   ar
    17     4     5   ar
    18     5     6   ar
    19     6     7    1
    20     6     8   ar
    21     8     9   ar
    22     9    10   ar
    23    10    11   ar
    24    11    12   ar
    25    12    13    1
    26    13    14    1
    27     1    15    1
    28    15    16   ar
    29    16    17   ar
    30    17    18   ar
    31    18    19   ar
    32    19    20   ar
    33    20    21    1
    34    21    22    1
    35    22    23    1
    36    23    24    1
    37    30    31   ar
    38    31    32   ar
    39    32    37    1
    40    37    38    1
    41    38    39    1
    42    32    33   ar
    43    33    28   ar
    44    12     2   ar
    45    20    15   ar
    46    10     4   ar
    47    24    19    1
    48    26    27    1
@<TRIPOS>MOLECULE
*****
 44 48 0 0 0
SMALL
GASTEIGER

@<TRIPOS>ATOM
      1 C         141.4967  140.2881  162.8141 C.3     1  UNL1        0.0807
      2 C         141.7245  140.0482  164.2772 C.ar    1  UNL1        0.0375
      3 C         140.6394  140.3570  165.2658 C.ar    1  UNL1        0.0023
      4 C         140.8673  140.1170  166.7289 C.ar    1  UNL1        0.0181
      5 C         139.7822  140.4258  167.7174 C.ar    1  UNL1        0.0082
      6 C         140.0101  140.1859  169.1804 C.ar    1  UNL1        0.0347
      7 BR        138.9250  140.4947  170.1690 Br      1  UNL1       -0.0490
      8 C         141.3230  139.6371  169.6549 C.ar    1  UNL1        0.0082
      9 C         142.4080  139.3283  168.6663 C.ar    1  UNL1        0.0197
     10 C         142.1802  139.5682  167.2033 C.ar    1  UNL1        0.0844
     11 N         143.2652  139.2594  166.2147 N.ar    1  UNL1       -0.2119
     12 C         143.0374  139.4994  164.7517 C.ar    1  UNL1        0.2211
     13 O         144.1225  139.1906  163.7631 O.3     1  UNL1       -0.4563
     14 C         145.2449  140.1363  164.0725 C.3     1  UNL1        0.2542
     15 C         142.4633  141.1274  162.0323 C.ar    1  UNL1        0.0213
     16 C         143.0507  140.6022  160.7560 C.ar    1  UNL1       -0.0007
     17 C         144.0174  141.4414  159.9741 C.ar    1  UNL1        0.0030
     18 C         144.3966  142.8058  160.4686 C.ar    1  UNL1        0.0400
     19 C         143.8091  143.3310  161.7450 C.ar    1  UNL1        0.1721
     20 C         142.8425  142.4918  162.5268 C.ar    1  UNL1        0.1687
     21 O         142.2551  143.0169  163.8032 O.3     1  UNL1       -0.4687
     22 C         142.6343  144.3814  164.2977 C.3     1  UNL1        0.2526
     23 C         143.6010  145.2206  163.5159 C.3     1  UNL1        0.2526
     24 O         144.1884  144.6954  162.2396 O.3     1  UNL1       -0.4684
     25 C         140.3022  139.6888  162.1329 C.3     1  UNL1        0.1162
     26 O         140.8958  138.3209  162.2955 O.3     1  UNL1       -0.3820
     27 H         140.2955  137.6606  161.9153 H       1  UNL1        0.2107
     28 C         139.1708  143.1129  160.4761 C.ar    1  UNL1        0.2271
     29 C         139.7644  141.7450  160.6387 C.ar    1  UNL1        0.0559
     30 C         139.7086  141.0567  161.9703 C.ar    1  UNL1        0.0117
     31 C         139.0593  141.7363  163.1392 C.ar    1  UNL1        0.0559
     32 C         138.4657  143.1043  162.9765 C.ar    1  UNL1        0.2271
     33 N         138.5214  143.7925  161.6450 N.ar    1  UNL1       -0.1767
     34 O         139.2265  143.8012  159.1444 O.3     1  UNL1       -0.4602
     35 C         141.3083  145.2040  159.8139 C.3     1  UNL1        0.0512
     36 C         140.4455  144.5839  158.7552 C.3     1  UNL1        0.2072
     37 O         137.8163  143.7839  164.1456 O.3     1  UNL1       -0.4602
     38 C         138.6499  144.5683  165.1149 C.3     1  UNL1        0.2072
     39 C         139.5185  143.8533  166.1072 C.3     1  UNL1        0.0512
     40 C         139.1077  139.0895  161.4517 C.3     1  UNL1        0.0491
     41 C         139.2962  138.1213  160.3216 C.3     1  UNL1        0.0750
     42 N         139.9668  138.5670  159.0561 N.3     1  UNL1       -0.2702
     43 C         141.4043  138.2191  158.8064 C.3     1  UNL1        0.0897
     44 C         139.1998  139.3605  158.0402 C.3     1  UNL1        0.0897
@<TRIPOS>BOND
     1    35    36    1
     2    36    34    1
     3    34    28    1
     4    28    29   ar
     5    29    30   ar
     6    30    25    1
     7    25    26    1
     8    25    40    1
     9    40    41    1
    10    41    42    1
    11    42    43    1
    12    42    44    1
    13    25     1    1
    14     1     2    1
    15     2     3   ar
    16     3     4   ar
    17     4     5   ar
    18     5     6   ar
    19     6     7    1
    20     6     8   ar
    21     8     9   ar
    22     9    10   ar
    23    10    11   ar
    24    11    12   ar
    25    12    13    1
    26    13    14    1
    27     1    15    1
    28    15    16   ar
    29    16    17   ar
    30    17    18   ar
    31    18    19   ar
    32    19    20   ar
    33    20    21    1
    34    21    22    1
    35    22    23    1
    36    23    24    1
    37    30    31   ar
    38    31    32   ar
    39    32    37    1
    40    37    38    1
    41    38    39    1
    42    32    33   ar
    43    33    28   ar
    44    12     2   ar
    45    20    15   ar
    46    10     4   ar
    47    24    19    1
    48    26    27    1
@<TRIPOS>MOLECULE
*****
 44 48 0 0 0
SMALL
GASTEIGER

@<TRIPOS>ATOM
      1 C         142.3047  141.2580  163.0692 C.3     1  UNL1        0.0807
      2 C         142.5161  141.5431  164.5267 C.ar    1  UNL1        0.0375
      3 C         141.6811  140.8420  165.5569 C.ar    1  UNL1        0.0023
      4 C         141.8925  141.1271  167.0143 C.ar    1  UNL1        0.0181
      5 C         141.0575  140.4260  168.0445 C.ar    1  UNL1        0.0082
      6 C         141.2689  140.7111  169.5018 C.ar    1  UNL1        0.0347
      7 BR        140.4339  140.0100  170.5321 Br      1  UNL1       -0.0490
      8 C         142.3153  141.6972  169.9291 C.ar    1  UNL1        0.0082
      9 C         143.1503  142.3983  168.8989 C.ar    1  UNL1        0.0197
     10 C         142.9389  142.1132  167.4415 C.ar    1  UNL1        0.0844
     11 N         143.7739  142.8143  166.4113 N.ar    1  UNL1       -0.2119
     12 C         143.5625  142.5292  164.9539 C.ar    1  UNL1        0.2211
     13 O         144.3975  143.2303  163.9237 O.3     1  UNL1       -0.4563
     14 C         143.8905  144.6410  163.8709 C.3     1  UNL1        0.2542
     15 C         141.6366  142.2773  162.1949 C.ar    1  UNL1        0.0213
     16 C         142.3161  142.7549  160.9458 C.ar    1  UNL1       -0.0007
     17 C         141.6479  143.7742  160.0714 C.ar    1  UNL1        0.0030
     18 C         140.3003  144.3160  160.4461 C.ar    1  UNL1        0.0400
     19 C         139.6208  143.8383  161.6952 C.ar    1  UNL1        0.1721
     20 C         140.2889  142.8190  162.5696 C.ar    1  UNL1        0.1687
     21 O         139.6094  142.3415  163.8186 O.3     1  UNL1       -0.4687
     22 C         138.2618  142.8832  164.1933 C.3     1  UNL1        0.2526
     23 C         137.5937  143.9025  163.3189 C.3     1  UNL1        0.2526
     24 O         138.2732  144.3801  162.0699 O.3     1  UNL1       -0.4684
     25 C         142.7615  139.9536  162.4862 C.3     1  UNL1        0.1162
     26 O         144.1807  140.4385  162.5133 O.3     1  UNL1       -0.3820
     27 H         144.7651  139.7477  162.1637 H       1  UNL1        0.2107
     28 C         139.0600  139.2566  161.2360 C.ar    1  UNL1        0.2271
     29 C         140.4792  139.7415  161.2631 C.ar    1  UNL1        0.0559
     30 C         141.3423  139.4687  162.4591 C.ar    1  UNL1        0.0117
     31 C         140.7862  138.7110  163.6281 C.ar    1  UNL1        0.0559
     32 C         139.3669  138.2262  163.6010 C.ar    1  UNL1        0.2271
     33 N         138.5039  138.4990  162.4050 N.ar    1  UNL1       -0.1767
     34 O         138.1969  139.5295  160.0398 O.3     1  UNL1       -0.4602
     35 C         138.5097  141.6938  158.6370 C.3     1  UNL1        0.0512
     36 C         138.7712  140.2315  158.8451 C.3     1  UNL1        0.2072
     37 O         138.8108  137.4684  164.7701 O.3     1  UNL1       -0.4602
     38 C         138.3601  138.2059  165.9960 C.3     1  UNL1        0.2072
     39 C         138.1054  139.6828  165.9316 C.3     1  UNL1        0.0512
     40 C         143.2183  138.6492  161.9032 C.3     1  UNL1        0.0491
     41 C         144.0962  138.6377  160.6870 C.3     1  UNL1        0.0750
     42 N         143.5117  138.9322  159.3373 N.3     1  UNL1       -0.2702
     43 C         142.6331  137.9202  158.6635 C.3     1  UNL1        0.0897
     44 C         143.8057  140.2385  158.6615 C.3     1  UNL1        0.0897
@<TRIPOS>BOND
     1    35    36    1
     2    36    34    1
     3    34    28    1
     4    28    29   ar
     5    29    30   ar
     6    30    25    1
     7    25    26    1
     8    25    40    1
     9    40    41    1
    10    41    42    1
    11    42    43    1
    12    42    44    1
    13    25     1    1
    14     1     2    1
    15     2     3   ar
    16     3     4   ar
    17     4     5   ar
    18     5     6   ar
    19     6     7    1
    20     6     8   ar
    21     8     9   ar
    22     9    10   ar
    23    10    11   ar
    24    11    12   ar
    25    12    13    1
    26    13    14    1
    27     1    15    1
    28    15    16   ar
    29    16    17   ar
    30    17    18   ar
    31    18    19   ar
    32    19    20   ar
    33    20    21    1
    34    21    22    1
    35    22    23    1
    36    23    24    1
    37    30    31   ar
    38    31    32   ar
    39    32    37    1
    40    37    38    1
    41    38    39    1
    42    32    33   ar
    43    33    28   ar
    44    12     2   ar
    45    20    15   ar
    46    10     4   ar
    47    24    19    1
    48    26    27    1
@<TRIPOS>MOLECULE
*****
 44 48 0 0 0
SMALL
GASTEIGER

@<TRIPOS>ATOM
      1 C         141.3839  142.3870  162.4240 C.3     1  UNL1        0.0807
      2 C         141.8773  142.3454  163.8400 C.ar    1  UNL1        0.0375
      3 C         141.0539  141.6790  164.9019 C.ar    1  UNL1        0.0023
      4 C         141.5473  141.6375  166.3179 C.ar    1  UNL1        0.0181
      5 C         140.7238  140.9710  167.3798 C.ar    1  UNL1        0.0082
      6 C         141.2173  140.9295  168.7957 C.ar    1  UNL1        0.0347
      7 BR        140.3938  140.2631  169.8577 Br      1  UNL1       -0.0490
      8 C         142.5342  141.5544  169.1497 C.ar    1  UNL1        0.0082
      9 C         143.3576  142.2209  168.0877 C.ar    1  UNL1        0.0197
     10 C         142.8642  142.2624  166.6719 C.ar    1  UNL1        0.0844
     11 N         143.6876  142.9288  165.6098 N.ar    1  UNL1       -0.2119
     12 C         143.1942  142.9704  164.1940 C.ar    1  UNL1        0.2211
     13 O         144.0177  143.6368  163.1319 O.3     1  UNL1       -0.4563
     14 C         143.7856  145.1100  163.2927 C.3     1  UNL1        0.2542
     15 C         142.2707  141.9228  161.3069 C.ar    1  UNL1        0.0213
     16 C         142.5887  142.8465  160.1687 C.ar    1  UNL1       -0.0007
     17 C         143.4756  142.3823  159.0514 C.ar    1  UNL1        0.0030
     18 C         144.0443  140.9944  159.0725 C.ar    1  UNL1        0.0400
     19 C         143.7262  140.0708  160.2108 C.ar    1  UNL1        0.1721
     20 C         142.8394  140.5349  161.3279 C.ar    1  UNL1        0.1687
     21 O         142.5213  139.6113  162.4662 O.3     1  UNL1       -0.4687
     22 C         143.0900  138.2234  162.4872 C.3     1  UNL1        0.2526
     23 C         143.9768  137.7592  161.3701 C.3     1  UNL1        0.2526
     24 O         144.2949  138.6829  160.2318 O.3     1  UNL1       -0.4684
     25 C         140.0037  142.8927  162.1253 C.3     1  UNL1        0.1162
     26 O         140.4262  144.2775  162.5176 O.3     1  UNL1       -0.3820
     27 H         139.6758  144.8843  162.4200 H       1  UNL1        0.2107
     28 C         138.9162  139.0856  162.3966 C.ar    1  UNL1        0.2271
     29 C         139.3388  140.4704  162.7889 C.ar    1  UNL1        0.0559
     30 C         139.5812  141.5079  161.7331 C.ar    1  UNL1        0.0117
     31 C         139.4010  141.1607  160.2850 C.ar    1  UNL1        0.0559
     32 C         138.9785  139.7759  159.8928 C.ar    1  UNL1        0.2271
     33 N         138.7361  138.7384  160.9486 N.ar    1  UNL1       -0.1767
     34 O         138.6738  138.0481  163.4525 O.3     1  UNL1       -0.4602
     35 C         138.2249  138.7266  165.9199 C.3     1  UNL1        0.0512
     36 C         139.1718  138.2697  164.8500 C.3     1  UNL1        0.2072
     37 O         138.7984  139.4286  158.4446 O.3     1  UNL1       -0.4602
     38 C         139.7253  138.4496  157.7872 C.3     1  UNL1        0.2072
     39 C         141.2002  138.5190  158.0521 C.3     1  UNL1        0.0512
     40 C         138.6235  143.3984  161.8266 C.3     1  UNL1        0.0491
     41 C         137.8800  144.2003  162.8534 C.3     1  UNL1        0.0750
     42 N         137.9991  143.8518  164.3075 N.3     1  UNL1       -0.2702
     43 C         137.5698  142.4988  164.7920 C.3     1  UNL1        0.0897
     44 C         138.5474  144.8564  165.2770 C.3     1  UNL1        0.0897
@<TRIPOS>BOND
     1    35    36    1
     2    36    34    1
     3    34    28    1
     4    28    29   ar
     5    29    30   ar
     6    30    25    1
     7    25    26    1
     8    25    40    1
     9    40    41    1
    10    41    42    1
    11    42    43    1
    12    42    44    1
    13    25     1    1
    14     1     2    1
    15     2     3   ar
    16     3     4   ar
    17     4     5   ar
    18     5     6   ar
    19     6     7    1
    20     6     8   ar
    21     8     9   ar
    22     9    10   ar
    23    10    11   ar
    24    11    12   ar
    25    12    13    1
    26    13    14    1
    27     1    15    1
    28    15    16   ar
    29    16    17   ar
    30    17    18   ar
    31    18    19   ar
    32    19    20   ar
    33    20    21    1
    34    21    22    1
    35    22    23    1
    36    23    24    1
    37    30    31   ar
    38    31    32   ar
    39    32    37    1
    40    37    38    1
    41    38    39    1
    42    32    33   ar
    43    33    28   ar
    44    12     2   ar
    45    20    15   ar
    46    10     4   ar
    47    24    19    1
    48    26    27    1
@<TRIPOS>MOLECULE
*****
 44 48 0 0 0
SMALL
GASTEIGER

@<TRIPOS>ATOM
      1 C         140.6150  140.6930  162.9119 C.3     1  UNL1        0.0807
      2 C         140.3202  140.5396  164.3747 C.ar    1  UNL1        0.0375
      3 C         140.5761  141.6800  165.3149 C.ar    1  UNL1        0.0023
      4 C         140.2813  141.5266  166.7777 C.ar    1  UNL1        0.0181
      5 C         140.5371  142.6670  167.7179 C.ar    1  UNL1        0.0082
      6 C         140.2423  142.5136  169.1806 C.ar    1  UNL1        0.0347
      7 BR        140.4982  143.6540  170.1209 Br      1  UNL1       -0.0490
      8 C         139.6917  141.2198  169.7031 C.ar    1  UNL1        0.0082
      9 C         139.4358  140.0795  168.7629 C.ar    1  UNL1        0.0197
     10 C         139.7306  140.2329  167.3002 C.ar    1  UNL1        0.0844
     11 N         139.4748  139.0925  166.3599 N.ar    1  UNL1       -0.2119
     12 C         139.7696  139.2459  164.8972 C.ar    1  UNL1        0.2211
     13 O         139.5137  138.1055  163.9569 O.3     1  UNL1       -0.4563
     14 C         140.5970  137.1018  164.2200 C.3     1  UNL1        0.2542
     15 C         141.6930  139.8681  162.2736 C.ar    1  UNL1        0.0213
     16 C         142.9993  139.6635  162.9818 C.ar    1  UNL1       -0.0007
     17 C         144.0774  138.8386  162.3434 C.ar    1  UNL1        0.0030
     18 C         143.8490  138.2183  160.9969 C.ar    1  UNL1        0.0400
     19 C         142.5425  138.4229  160.2888 C.ar    1  UNL1        0.1721
     20 C         141.4646  139.2478  160.9271 C.ar    1  UNL1        0.1687
     21 O         140.1582  139.4523  160.2190 O.3     1  UNL1       -0.4687
     22 C         139.9298  138.8320  158.8725 C.3     1  UNL1        0.2526
     23 C         141.0078  138.0071  158.2341 C.3     1  UNL1        0.2526
     24 O         142.3141  137.8026  158.9423 O.3     1  UNL1       -0.4684
     25 C         139.8318  141.6712  162.0876 C.3     1  UNL1        0.1162
     26 O         138.5867  140.8666  162.3157 O.3     1  UNL1       -0.3820
     27 H         137.8407  141.2896  161.8623 H       1  UNL1        0.2107
     28 C         143.0733  143.8474  162.7994 C.ar    1  UNL1        0.2271
     29 C         141.8282  143.0428  163.0275 C.ar    1  UNL1        0.0559
     30 C         141.0770  142.4759  161.8594 C.ar    1  UNL1        0.0117
     31 C         141.5711  142.7137  160.4633 C.ar    1  UNL1        0.0559
     32 C         142.8163  143.5183  160.2351 C.ar    1  UNL1        0.2271
     33 N         143.5674  144.0852  161.4032 N.ar    1  UNL1       -0.1767
     34 O         143.8245  144.4143  163.9675 O.3     1  UNL1       -0.4602
     35 C         143.8955  142.8975  166.0756 C.3     1  UNL1        0.0512
     36 C         144.5815  143.5020  164.8865 C.3     1  UNL1        0.2072
     37 O         143.3103  143.7561  158.8389 O.3     1  UNL1       -0.4602
     38 C         142.3884  144.3313  157.8049 C.3     1  UNL1        0.2072
     39 C         141.7429  145.6657  158.0347 C.3     1  UNL1        0.0512
     40 C         139.0486  142.6495  161.2632 C.3     1  UNL1        0.0491
     41 C         138.1750  143.6667  161.9356 C.3     1  UNL1        0.0750
     42 N         138.7911  144.7503  162.7699 N.3     1  UNL1       -0.2702
     43 C         139.5234  145.8806  162.1096 C.3     1  UNL1        0.0897
     44 C         138.6749  144.7036  164.2647 C.3     1  UNL1        0.0897
@<TRIPOS>BOND
     1    35    36    1
     2    36    34    1
     3    34    28    1
     4    28    29   ar
     5    29    30   ar
     6    30    25    1
     7    25    26    1
     8    25    40    1
     9    40    41    1
    10    41    42    1
    11    42    43    1
    12    42    44    1
    13    25     1    1
    14     1     2    1
    15     2     3   ar
    16     3     4   ar
    17     4     5   ar
    18     5     6   ar
    19     6     7    1
    20     6     8   ar
    21     8     9   ar
    22     9    10   ar
    23    10    11   ar
    24    11    12   ar
    25    12    13    1
    26    13    14    1
    27     1    15    1
    28    15    16   ar
    29    16    17   ar
    30    17    18   ar
    31    18    19   ar
    32    19    20   ar
    33    20    21    1
    34    21    22    1
    35    22    23    1
    36    23    24    1
    37    30    31   ar
    38    31    32   ar
    39    32    37    1
    40    37    38    1
    41    38    39    1
    42    32    33   ar
    43    33    28   ar
    44    12     2   ar
    45    20    15   ar
    46    10     4   ar
    47    24    19    1
    48    26    27    1
@<TRIPOS>MOLECULE
*****
 44 48 0 0 0
SMALL
GASTEIGER

@<TRIPOS>ATOM
      1 C         141.7000  141.5384  163.0190 C.3     1  UNL1        0.0807
      2 C         142.0709  141.7094  164.4624 C.ar    1  UNL1        0.0375
      3 C         141.2166  141.0990  165.5336 C.ar    1  UNL1        0.0023
      4 C         141.5875  141.2700  166.9770 C.ar    1  UNL1        0.0181
      5 C         140.7333  140.6597  168.0483 C.ar    1  UNL1        0.0082
      6 C         141.1042  140.8307  169.4916 C.ar    1  UNL1        0.0347
      7 BR        140.2499  140.2203  170.5629 Br      1  UNL1       -0.0490
      8 C         142.3293  141.6120  169.8636 C.ar    1  UNL1        0.0082
      9 C         143.1836  142.2224  168.7923 C.ar    1  UNL1        0.0197
     10 C         142.8127  142.0514  167.3490 C.ar    1  UNL1        0.0844
     11 N         143.6670  142.6618  166.2777 N.ar    1  UNL1       -0.2119
     12 C         143.2961  142.4908  164.8344 C.ar    1  UNL1        0.2211
     13 O         144.1504  143.1011  163.7631 O.3     1  UNL1       -0.4563
     14 C         145.3760  142.2412  163.6718 C.3     1  UNL1        0.2542
     15 C         142.5038  140.6256  162.1411 C.ar    1  UNL1        0.0213
     16 C         142.7591  139.2098  162.5657 C.ar    1  UNL1       -0.0007
     17 C         143.5630  138.2969  161.6878 C.ar    1  UNL1        0.0030
     18 C         144.1114  138.7999  160.3854 C.ar    1  UNL1        0.0400
     19 C         143.8561  140.2158  159.9609 C.ar    1  UNL1        0.1721
     20 C         143.0523  141.1286  160.8388 C.ar    1  UNL1        0.1687
     21 O         142.7970  142.5444  160.4142 O.3     1  UNL1       -0.4687
     22 C         143.3455  143.0474  159.1119 C.3     1  UNL1        0.2526
     23 C         144.1493  142.1346  158.2340 C.3     1  UNL1        0.2526
     24 O         144.4046  140.7188  158.6586 O.3     1  UNL1       -0.4684
     25 C         140.5253  142.2803  162.4535 C.3     1  UNL1        0.1162
     26 O         141.1493  143.5811  162.8640 O.3     1  UNL1       -0.3820
     27 H         140.5676  144.3138  162.6078 H       1  UNL1        0.2107
     28 C         138.8932  138.6695  162.6737 C.ar    1  UNL1        0.2271
     29 C         139.5171  139.9704  163.0842 C.ar    1  UNL1        0.0559
     30 C         139.9014  140.9794  162.0430 C.ar    1  UNL1        0.0117
     31 C         139.6618  140.6877  160.5913 C.ar    1  UNL1        0.0559
     32 C         139.0378  139.3868  160.1808 C.ar    1  UNL1        0.2271
     33 N         138.6536  138.3777  161.2220 N.ar    1  UNL1       -0.1767
     34 O         138.5089  137.6604  163.7149 O.3     1  UNL1       -0.4602
     35 C         138.1783  138.6856  166.0791 C.3     1  UNL1        0.0512
     36 C         138.9692  137.8326  165.1321 C.3     1  UNL1        0.2072
     37 O         138.7982  139.0951  158.7291 O.3     1  UNL1       -0.4602
     38 C         139.7841  138.2690  157.9574 C.3     1  UNL1        0.2072
     39 C         141.2227  138.6885  157.8885 C.3     1  UNL1        0.0512
     40 C         139.3506  143.0221  161.8881 C.3     1  UNL1        0.0491
     41 C         138.6735  144.0857  162.7006 C.3     1  UNL1        0.0750
     42 N         138.3856  143.8500  164.1537 N.3     1  UNL1       -0.2702
     43 C         138.8306  144.8510  165.1784 C.3     1  UNL1        0.0897
     44 C         137.6528  142.6133  164.5822 C.3     1  UNL1        0.0897
@<TRIPOS>BOND
     1    35    36    1
     2    36    34    1
     3    34    28    1
     4    28    29   ar
     5    29    30   ar
     6    30    25    1
     7    25    26    1
     8    25    40    1
     9    40    41    1
    10    41    42    1
    11    42    43    1
    12    42    44    1
    13    25     1    1
    14     1     2    1
    15     2     3   ar
    16     3     4   ar
    17     4     5   ar
    18     5     6   ar
    19     6     7    1
    20     6     8   ar
    21     8     9   ar
    22     9    10   ar
    23    10    11   ar
    24    11    12   ar
    25    12    13    1
    26    13    14    1
    27     1    15    1
    28    15    16   ar
    29    16    17   ar
    30    17    18   ar
    31    18    19   ar
    32    19    20   ar
    33    20    21    1
    34    21    22    1
    35    22    23    1
    36    23    24    1
    37    30    31   ar
    38    31    32   ar
    39    32    37    1
    40    37    38    1
    41    38    39    1
    42    32    33   ar
    43    33    28   ar
    44    12     2   ar
    45    20    15   ar
    46    10     4   ar
    47    24    19    1
    48    26    27    1
@<TRIPOS>MOLECULE
*****
 44 48 0 0 0
SMALL
GASTEIGER

@<TRIPOS>ATOM
      1 C         140.6415  140.5948  162.8249 C.3     1  UNL1        0.0807
      2 C         140.3485  140.4650  164.2903 C.ar    1  UNL1        0.0375
      3 C         140.6054  141.6204  165.2117 C.ar    1  UNL1        0.0023
      4 C         140.3125  141.4906  166.6771 C.ar    1  UNL1        0.0181
      5 C         140.5694  142.6459  167.5986 C.ar    1  UNL1        0.0082
      6 C         140.2764  142.5161  169.0639 C.ar    1  UNL1        0.0347
      7 BR        140.5333  143.6715  169.9854 Br      1  UNL1       -0.0490
      8 C         139.7265  141.2309  169.6078 C.ar    1  UNL1        0.0082
      9 C         139.4696  140.0755  168.6864 C.ar    1  UNL1        0.0197
     10 C         139.7626  140.2053  167.2211 C.ar    1  UNL1        0.0844
     11 N         139.5057  139.0499  166.2996 N.ar    1  UNL1       -0.2119
     12 C         139.7987  139.1798  164.8342 C.ar    1  UNL1        0.2211
     13 O         139.5418  138.0243  163.9127 O.3     1  UNL1       -0.4563
     14 C         140.6619  137.0540  164.1444 C.3     1  UNL1        0.2542
     15 C         141.7658  139.8130  162.2127 C.ar    1  UNL1        0.0213
     16 C         143.0662  139.6696  162.9464 C.ar    1  UNL1       -0.0007
     17 C         144.1905  138.8878  162.3342 C.ar    1  UNL1        0.0030
     18 C         144.0144  138.2494  160.9883 C.ar    1  UNL1        0.0400
     19 C         142.7139  138.3928  160.2546 C.ar    1  UNL1        0.1721
     20 C         141.5896  139.1746  160.8668 C.ar    1  UNL1        0.1687
     21 O         140.2892  139.3180  160.1331 O.3     1  UNL1       -0.4687
     22 C         140.1131  138.6796  158.7872 C.3     1  UNL1        0.2526
     23 C         141.2374  137.8978  158.1750 C.3     1  UNL1        0.2526
     24 O         142.5378  137.7544  158.9087 O.3     1  UNL1       -0.4684
     25 C         139.8102  141.5064  161.9717 C.3     1  UNL1        0.1162
     26 O         138.6255  140.6068  162.1649 O.3     1  UNL1       -0.3820
     27 H         137.8633  140.9686  161.6863 H       1  UNL1        0.2107
     28 C         142.7135  143.5568  160.2064 C.ar    1  UNL1        0.2271
     29 C         141.5289  142.6572  160.3996 C.ar    1  UNL1        0.0559
     30 C         140.9948  142.4060  161.7786 C.ar    1  UNL1        0.0117
     31 C         141.6455  143.0543  162.9644 C.ar    1  UNL1        0.0559
     32 C         142.8302  143.9539  162.7713 C.ar    1  UNL1        0.2271
     33 N         143.3642  144.2052  161.3923 N.ar    1  UNL1       -0.1767
     34 O         143.2475  143.8081  158.8274 O.3     1  UNL1       -0.4602
     35 C         143.7916  142.2611  156.8122 C.3     1  UNL1        0.0512
     36 C         144.1368  142.7939  158.1712 C.3     1  UNL1        0.2072
     37 O         143.4808  144.6022  163.9572 O.3     1  UNL1       -0.4602
     38 C         144.2521  143.7696  164.9379 C.3     1  UNL1        0.2072
     39 C         144.9338  142.5134  164.4824 C.3     1  UNL1        0.0512
     40 C         138.9789  142.4180  161.1186 C.3     1  UNL1        0.0491
     41 C         137.9190  143.2735  161.7468 C.3     1  UNL1        0.0750
     42 N         138.3001  144.3315  162.7396 N.3     1  UNL1       -0.2702
     43 C         139.0593  145.5441  162.2891 C.3     1  UNL1        0.0897
     44 C         137.9219  144.1767  164.1828 C.3     1  UNL1        0.0897
@<TRIPOS>BOND
     1    35    36    1
     2    36    34    1
     3    34    28    1
     4    28    29   ar
     5    29    30   ar
     6    30    25    1
     7    25    26    1
     8    25    40    1
     9    40    41    1
    10    41    42    1
    11    42    43    1
    12    42    44    1
    13    25     1    1
    14     1     2    1
    15     2     3   ar
    16     3     4   ar
    17     4     5   ar
    18     5     6   ar
    19     6     7    1
    20     6     8   ar
    21     8     9   ar
    22     9    10   ar
    23    10    11   ar
    24    11    12   ar
    25    12    13    1
    26    13    14    1
    27     1    15    1
    28    15    16   ar
    29    16    17   ar
    30    17    18   ar
    31    18    19   ar
    32    19    20   ar
    33    20    21    1
    34    21    22    1
    35    22    23    1
    36    23    24    1
    37    30    31   ar
    38    31    32   ar
    39    32    37    1
    40    37    38    1
    41    38    39    1
    42    32    33   ar
    43    33    28   ar
    44    12     2   ar
    45    20    15   ar
    46    10     4   ar
    47    24    19    1
    48    26    27    1
