@<TRIPOS>MOLECULE
*****
 35 38 0 0 0
SMALL
GASTEIGER

@<TRIPOS>ATOM
      1 C         140.7284  141.6968  162.3273 C.ar    1  UNL1        0.0901
      2 C         139.7673  140.6872  161.7730 C.ar    1  UNL1        0.0212
      3 C         138.9104  139.8790  162.7017 C.ar    1  UNL1        0.0754
      4 C         139.0145  140.0802  164.1844 C.ar    1  UNL1        0.0382
      5 C         139.9756  141.0897  164.7387 C.ar    1  UNL1        0.1313
      6 N         140.8326  141.8980  163.8101 N.ar    1  UNL1       -0.2325
      7 N         140.0798  141.2910  166.2214 N.pl3   1  UNL1       -0.2932
      8 C         139.8352  140.1414  167.1534 C.3     1  UNL1        0.0932
      9 C         139.9393  140.3426  168.6361 C.3     1  UNL1        0.0366
     10 C         140.2881  141.6936  169.1870 C.3     1  UNL1        0.0948
     11 C         140.5327  142.8433  168.2551 C.3     1  UNL1        0.0366
     12 C         140.4285  142.6420  166.7722 C.3     1  UNL1        0.0932
     13 C         140.3922  141.8948  170.6697 C.1     1  UNL1        0.0722
     14 N         140.4963  142.0960  172.1526 N.1     1  UNL1       -0.1959
     15 C         137.9492  138.8694  162.1475 C.3     1  UNL1        0.4187
     16 F         136.9882  137.8598  161.5935 F       1  UNL1       -0.1659
     17 F         138.5493  137.8144  163.0291 F       1  UNL1       -0.1659
     18 F         137.3493  139.9244  161.2661 F       1  UNL1       -0.1659
     19 C         141.5854  142.5051  161.3987 C.3     1  UNL1        0.1875
     20 O         142.8561  141.9235  160.8536 O.3     1  UNL1       -0.3470
     21 C         143.5082  140.7641  161.5469 C.3     1  UNL1        0.1467
     22 C         142.8362  137.1280  157.1686 C.3     1  UNL1        0.0896
     23 N         142.9856  137.8747  158.4610 N.3     1  UNL1       -0.2715
     24 C         142.9131  137.1380  159.7655 C.3     1  UNL1        0.0725
     25 C         143.0625  137.8847  161.0579 C.3     1  UNL1        0.0238
     26 C         143.2844  139.3681  161.0456 C.3     1  UNL1        0.0489
     27 C         143.3569  140.1048  159.7411 C.3     1  UNL1        0.0238
     28 C         143.2075  139.3581  158.4487 C.3     1  UNL1        0.0725
     29 C         143.2896  139.1162  162.5243 C.ar    1  UNL1       -0.0202
     30 C         142.1909  138.3106  163.1518 C.ar    1  UNL1       -0.0019
     31 C         142.1961  138.0586  164.6304 C.ar    1  UNL1        0.0293
     32 C         143.3000  138.6124  165.4816 C.ar    1  UNL1        0.1401
     33 F         143.3053  138.3604  166.9604 F       1  UNL1       -0.2042
     34 C         144.3988  139.4180  164.8543 C.ar    1  UNL1        0.0293
     35 C         144.3936  139.6699  163.3756 C.ar    1  UNL1       -0.0019
@<TRIPOS>BOND
     1    22    23    1
     2    23    24    1
     3    24    25    1
     4    25    26    1
     5    26    21    1
     6    21    20    1
     7    20    19    1
     8    19     1    1
     9     1     2   ar
    10     2     3   ar
    11     3    15    1
    12    15    16    1
    13    15    17    1
    14    15    18    1
    15     3     4   ar
    16     4     5   ar
    17     5     7    1
    18     7     8    1
    19     8     9    1
    20     9    10    1
    21    10    13    1
    22    13    14    3
    23    10    11    1
    24    11    12    1
    25     5     6   ar
    26    26    29    1
    27    29    30   ar
    28    30    31   ar
    29    31    32   ar
    30    32    33    1
    31    32    34   ar
    32    34    35   ar
    33    26    27    1
    34    27    28    1
    35    28    23    1
    36     6     1   ar
    37    35    29   ar
    38    12     7    1
@<TRIPOS>MOLECULE
*****
 35 38 0 0 0
SMALL
GASTEIGER

@<TRIPOS>ATOM
      1 C         141.9467  142.0384  163.9464 C.ar    1  UNL1        0.0901
      2 C         141.2245  142.9757  164.8684 C.ar    1  UNL1        0.0212
      3 C         139.8803  143.5188  164.4834 C.ar    1  UNL1        0.0754
      4 C         139.2584  143.1248  163.1766 C.ar    1  UNL1        0.0382
      5 C         139.9806  142.1875  162.2546 C.ar    1  UNL1        0.1313
      6 N         141.3248  141.6444  162.6395 N.ar    1  UNL1       -0.2325
      7 N         139.3587  141.7935  160.9478 N.pl3   1  UNL1       -0.2932
      8 C         139.0613  140.3511  160.6633 C.3     1  UNL1        0.0932
      9 C         138.4393  139.9571  159.3564 C.3     1  UNL1        0.0366
     10 C         138.1148  141.0057  158.3340 C.3     1  UNL1        0.0948
     11 C         138.4122  142.4481  158.6184 C.3     1  UNL1        0.0366
     12 C         139.0341  142.8421  159.9253 C.3     1  UNL1        0.0932
     13 C         137.4928  140.6116  157.0271 C.1     1  UNL1        0.0722
     14 N         136.8708  140.2177  155.7202 N.1     1  UNL1       -0.1959
     15 C         139.1580  144.4560  165.4054 C.3     1  UNL1        0.4187
     16 F         138.4357  145.3932  166.3273 F       1  UNL1       -0.1659
     17 F         139.7140  143.7205  166.5886 F       1  UNL1       -0.1659
     18 F         138.6020  145.1914  164.2222 F       1  UNL1       -0.1659
     19 C         143.2909  141.4953  164.3313 C.3     1  UNL1        0.1875
     20 O         143.4506  140.7238  165.6079 O.3     1  UNL1       -0.3470
     21 C         142.4850  139.6273  165.9472 C.3     1  UNL1        0.1467
     22 C         140.8983  141.4225  171.1531 C.3     1  UNL1        0.0896
     23 N         141.0676  140.9035  169.7560 N.3     1  UNL1       -0.2715
     24 C         139.8733  140.4291  168.9824 C.3     1  UNL1        0.0725
     25 C         140.0426  139.9100  167.5853 C.3     1  UNL1        0.0238
     26 C         141.4061  139.8654  166.9618 C.3     1  UNL1        0.0489
     27 C         142.6003  140.3398  167.7354 C.3     1  UNL1        0.0238
     28 C         142.4311  140.8589  169.1325 C.3     1  UNL1        0.0725
     29 C         140.5864  139.3082  165.8358 C.ar    1  UNL1       -0.0202
     30 C         139.2804  139.9489  165.4703 C.ar    1  UNL1       -0.0019
     31 C         138.4607  139.3919  164.3443 C.ar    1  UNL1        0.0293
     32 C         138.9472  138.1940  163.5838 C.ar    1  UNL1        0.1401
     33 F         138.1276  137.6368  162.4578 F       1  UNL1       -0.2042
     34 C         140.2533  137.5532  163.9493 C.ar    1  UNL1        0.0293
     35 C         141.0729  138.1103  165.0753 C.ar    1  UNL1       -0.0019
@<TRIPOS>BOND
     1    22    23    1
     2    23    24    1
     3    24    25    1
     4    25    26    1
     5    26    21    1
     6    21    20    1
     7    20    19    1
     8    19     1    1
     9     1     2   ar
    10     2     3   ar
    11     3    15    1
    12    15    16    1
    13    15    17    1
    14    15    18    1
    15     3     4   ar
    16     4     5   ar
    17     5     7    1
    18     7     8    1
    19     8     9    1
    20     9    10    1
    21    10    13    1
    22    13    14    3
    23    10    11    1
    24    11    12    1
    25     5     6   ar
    26    26    29    1
    27    29    30   ar
    28    30    31   ar
    29    31    32   ar
    30    32    33    1
    31    32    34   ar
    32    34    35   ar
    33    26    27    1
    34    27    28    1
    35    28    23    1
    36     6     1   ar
    37    35    29   ar
    38    12     7    1
@<TRIPOS>MOLECULE
*****
 35 38 0 0 0
SMALL
GASTEIGER

@<TRIPOS>ATOM
      1 C         138.4849  141.2947  164.2877 C.ar    1  UNL1        0.0901
      2 C         138.0874  140.2595  165.2980 C.ar    1  UNL1        0.0212
      3 C         138.4589  138.8220  165.0847 C.ar    1  UNL1        0.0754
      4 C         139.2279  138.4196  163.8613 C.ar    1  UNL1        0.0382
      5 C         139.6254  139.4548  162.8510 C.ar    1  UNL1        0.1313
      6 N         139.2539  140.8923  163.0643 N.ar    1  UNL1       -0.2325
      7 N         140.3943  139.0523  161.6277 N.pl3   1  UNL1       -0.2932
      8 C         139.9132  139.4676  160.2690 C.3     1  UNL1        0.0932
      9 C         140.6822  139.0652  159.0456 C.3     1  UNL1        0.0366
     10 C         141.9324  138.2474  159.1810 C.3     1  UNL1        0.0948
     11 C         142.4136  137.8321  160.5396 C.3     1  UNL1        0.0366
     12 C         141.6446  138.2345  161.7630 C.3     1  UNL1        0.0932
     13 C         142.7014  137.8449  157.9576 C.1     1  UNL1        0.0722
     14 N         143.4703  137.4425  156.7341 N.1     1  UNL1       -0.1959
     15 C         138.0615  137.7868  166.0949 C.3     1  UNL1        0.4187
     16 F         137.6640  136.7517  167.1050 F       1  UNL1       -0.1659
     17 F         137.3444  138.8377  166.8896 F       1  UNL1       -0.1659
     18 F         138.7785  136.7360  165.3001 F       1  UNL1       -0.1659
     19 C         138.1134  142.7322  164.5010 C.3     1  UNL1        0.1875
     20 O         139.1505  143.7150  164.9581 O.3     1  UNL1       -0.3470
     21 C         140.0318  143.3863  166.1265 C.3     1  UNL1        0.1467
     22 C         144.8018  142.8574  162.9945 C.3     1  UNL1        0.0896
     23 N         143.6571  142.8192  163.9632 N.3     1  UNL1       -0.2715
     24 C         143.7035  141.8939  165.1429 C.3     1  UNL1        0.0725
     25 C         142.5588  141.8558  166.1116 C.3     1  UNL1        0.0238
     26 C         141.3678  142.7429  165.9005 C.3     1  UNL1        0.0489
     27 C         141.3215  143.6681  164.7209 C.3     1  UNL1        0.0238
     28 C         142.4662  143.7063  163.7522 C.3     1  UNL1        0.0725
     29 C         140.9502  142.0410  167.1587 C.ar    1  UNL1       -0.0202
     30 C         140.9365  140.5421  167.2122 C.ar    1  UNL1       -0.0019
     31 C         140.5189  139.8402  168.4703 C.ar    1  UNL1        0.0293
     32 C         140.1149  140.6373  169.6750 C.ar    1  UNL1        0.1401
     33 F         139.6972  139.9354  170.9332 F       1  UNL1       -0.2042
     34 C         140.1284  142.1363  169.6216 C.ar    1  UNL1        0.0293
     35 C         140.5461  142.8382  168.3634 C.ar    1  UNL1       -0.0019
@<TRIPOS>BOND
     1    22    23    1
     2    23    24    1
     3    24    25    1
     4    25    26    1
     5    26    21    1
     6    21    20    1
     7    20    19    1
     8    19     1    1
     9     1     2   ar
    10     2     3   ar
    11     3    15    1
    12    15    16    1
    13    15    17    1
    14    15    18    1
    15     3     4   ar
    16     4     5   ar
    17     5     7    1
    18     7     8    1
    19     8     9    1
    20     9    10    1
    21    10    13    1
    22    13    14    3
    23    10    11    1
    24    11    12    1
    25     5     6   ar
    26    26    29    1
    27    29    30   ar
    28    30    31   ar
    29    31    32   ar
    30    32    33    1
    31    32    34   ar
    32    34    35   ar
    33    26    27    1
    34    27    28    1
    35    28    23    1
    36     6     1   ar
    37    35    29   ar
    38    12     7    1
@<TRIPOS>MOLECULE
*****
 35 38 0 0 0
SMALL
GASTEIGER

@<TRIPOS>ATOM
      1 C         141.6340  139.8042  164.3220 C.ar    1  UNL1        0.0901
      2 C         140.7048  139.1024  165.2676 C.ar    1  UNL1        0.0212
      3 C         139.2664  138.9001  164.8937 C.ar    1  UNL1        0.0754
      4 C         138.7570  139.3994  163.5742 C.ar    1  UNL1        0.0382
      5 C         139.6862  140.1012  162.6285 C.ar    1  UNL1        0.1313
      6 N         141.1246  140.3036  163.0024 N.ar    1  UNL1       -0.2325
      7 N         139.1768  140.6006  161.3090 N.pl3   1  UNL1       -0.2932
      8 C         138.2345  139.7582  160.5013 C.3     1  UNL1        0.0932
      9 C         137.7251  140.2575  159.1818 C.3     1  UNL1        0.0366
     10 C         138.1581  141.5995  158.6700 C.3     1  UNL1        0.0948
     11 C         139.1004  142.4419  159.4776 C.3     1  UNL1        0.0366
     12 C         139.6098  141.9425  160.7972 C.3     1  UNL1        0.0932
     13 C         137.6487  142.0988  157.3505 C.1     1  UNL1        0.0722
     14 N         137.1393  142.5982  156.0309 N.1     1  UNL1       -0.1959
     15 C         138.3372  138.1983  165.8393 C.3     1  UNL1        0.4187
     16 F         137.4081  137.4965  166.7849 F       1  UNL1       -0.1659
     17 F         138.9500  136.8815  165.4641 F       1  UNL1       -0.1659
     18 F         137.7245  139.5150  166.2144 F       1  UNL1       -0.1659
     19 C         143.0725  140.0066  164.6958 C.3     1  UNL1        0.1875
     20 O         143.4717  141.1886  165.5287 O.3     1  UNL1       -0.3470
     21 C         142.5501  142.3657  165.6507 C.3     1  UNL1        0.1467
     22 C         141.8115  141.9151  171.3158 C.3     1  UNL1        0.0896
     23 N         141.7644  142.1125  169.8296 N.3     1  UNL1       -0.2715
     24 C         140.5066  142.6058  169.1781 C.3     1  UNL1        0.0725
     25 C         140.4594  142.8032  167.6919 C.3     1  UNL1        0.0238
     26 C         141.6701  142.5074  166.8572 C.3     1  UNL1        0.0489
     27 C         142.9279  142.0141  167.5088 C.3     1  UNL1        0.0238
     28 C         142.9750  141.8167  168.9950 C.3     1  UNL1        0.0725
     29 C         140.7178  142.9515  165.7867 C.ar    1  UNL1       -0.0202
     30 C         141.1797  143.8959  164.7168 C.ar    1  UNL1       -0.0019
     31 C         140.2275  144.3401  163.6463 C.ar    1  UNL1        0.0293
     32 C         138.8135  143.8397  163.6456 C.ar    1  UNL1        0.1401
     33 F         137.8612  144.2838  162.5751 F       1  UNL1       -0.2042
     34 C         138.3515  142.8952  164.7155 C.ar    1  UNL1        0.0293
     35 C         139.3038  142.4511  165.7860 C.ar    1  UNL1       -0.0019
@<TRIPOS>BOND
     1    22    23    1
     2    23    24    1
     3    24    25    1
     4    25    26    1
     5    26    21    1
     6    21    20    1
     7    20    19    1
     8    19     1    1
     9     1     2   ar
    10     2     3   ar
    11     3    15    1
    12    15    16    1
    13    15    17    1
    14    15    18    1
    15     3     4   ar
    16     4     5   ar
    17     5     7    1
    18     7     8    1
    19     8     9    1
    20     9    10    1
    21    10    13    1
    22    13    14    3
    23    10    11    1
    24    11    12    1
    25     5     6   ar
    26    26    29    1
    27    29    30   ar
    28    30    31   ar
    29    31    32   ar
    30    32    33    1
    31    32    34   ar
    32    34    35   ar
    33    26    27    1
    34    27    28    1
    35    28    23    1
    36     6     1   ar
    37    35    29   ar
    38    12     7    1
@<TRIPOS>MOLECULE
*****
 35 38 0 0 0
SMALL
GASTEIGER

@<TRIPOS>ATOM
      1 C         139.3401  138.2525  162.8420 C.ar    1  UNL1        0.0901
      2 C         140.6356  137.9749  162.1387 C.ar    1  UNL1        0.0212
      3 C         141.9380  138.2631  162.8247 C.ar    1  UNL1        0.0754
      4 C         141.9450  138.8289  164.2138 C.ar    1  UNL1        0.0382
      5 C         140.6495  139.1065  164.9171 C.ar    1  UNL1        0.1313
      6 N         139.3470  138.8183  164.2313 N.ar    1  UNL1       -0.2325
      7 N         140.6565  139.6723  166.3063 N.pl3   1  UNL1       -0.2932
      8 C         139.3993  139.6676  167.1245 C.3     1  UNL1        0.0932
      9 C         139.4063  140.2334  168.5136 C.3     1  UNL1        0.0366
     10 C         140.6707  140.8039  169.0846 C.3     1  UNL1        0.0948
     11 C         141.9279  140.8087  168.2665 C.3     1  UNL1        0.0366
     12 C         141.9209  140.2429  166.8773 C.3     1  UNL1        0.0932
     13 C         140.6777  141.3697  170.4738 C.1     1  UNL1        0.0722
     14 N         140.6847  141.9355  171.8630 N.1     1  UNL1       -0.1959
     15 C         143.2336  137.9856  162.1214 C.3     1  UNL1        0.4187
     16 F         144.5292  137.7081  161.4183 F       1  UNL1       -0.1659
     17 F         143.9857  138.5996  163.2649 F       1  UNL1       -0.1659
     18 F         142.4815  137.3716  160.9781 F       1  UNL1       -0.1659
     19 C         138.0376  137.9643  162.1561 C.3     1  UNL1        0.1875
     20 O         137.4339  138.9823  161.2346 O.3     1  UNL1       -0.3470
     21 C         137.5758  140.4448  161.5365 C.3     1  UNL1        0.1467
     22 C         139.8814  141.9625  156.5143 C.3     1  UNL1        0.0896
     23 N         139.4369  141.7352  157.9288 N.3     1  UNL1       -0.2715
     24 C         140.0659  142.5126  159.0468 C.3     1  UNL1        0.0725
     25 C         139.6215  142.2853  160.4613 C.3     1  UNL1        0.0238
     26 C         138.5481  141.2804  160.7578 C.3     1  UNL1        0.0489
     27 C         137.9191  140.5029  159.6398 C.3     1  UNL1        0.0238
     28 C         138.3635  140.7303  158.2254 C.3     1  UNL1        0.0725
     29 C         138.8394  141.7677  162.1462 C.ar    1  UNL1       -0.0202
     30 C         140.2552  142.0262  162.5687 C.ar    1  UNL1       -0.0019
     31 C         140.5466  142.5135  163.9571 C.ar    1  UNL1        0.0293
     32 C         139.4221  142.7422  164.9230 C.ar    1  UNL1        0.1401
     33 F         139.7134  143.2295  166.3114 F       1  UNL1       -0.2042
     34 C         138.0062  142.4837  164.5006 C.ar    1  UNL1        0.0293
     35 C         137.7148  141.9965  163.1122 C.ar    1  UNL1       -0.0019
@<TRIPOS>BOND
     1    22    23    1
     2    23    24    1
     3    24    25    1
     4    25    26    1
     5    26    21    1
     6    21    20    1
     7    20    19    1
     8    19     1    1
     9     1     2   ar
    10     2     3   ar
    11     3    15    1
    12    15    16    1
    13    15    17    1
    14    15    18    1
    15     3     4   ar
    16     4     5   ar
    17     5     7    1
    18     7     8    1
    19     8     9    1
    20     9    10    1
    21    10    13    1
    22    13    14    3
    23    10    11    1
    24    11    12    1
    25     5     6   ar
    26    26    29    1
    27    29    30   ar
    28    30    31   ar
    29    31    32   ar
    30    32    33    1
    31    32    34   ar
    32    34    35   ar
    33    26    27    1
    34    27    28    1
    35    28    23    1
    36     6     1   ar
    37    35    29   ar
    38    12     7    1
@<TRIPOS>MOLECULE
*****
 35 38 0 0 0
SMALL
GASTEIGER

@<TRIPOS>ATOM
      1 C         139.3292  141.2707  164.5592 C.ar    1  UNL1        0.0901
      2 C         138.7204  140.2454  165.4693 C.ar    1  UNL1        0.0212
      3 C         138.7853  138.7906  165.1097 C.ar    1  UNL1        0.0754
      4 C         139.4589  138.3610  163.8402 C.ar    1  UNL1        0.0382
      5 C         140.0677  139.3863  162.9301 C.ar    1  UNL1        0.1313
      6 N         140.0029  140.8412  163.2896 N.ar    1  UNL1       -0.2325
      7 N         140.7413  138.9568  161.6606 N.pl3   1  UNL1       -0.2932
      8 C         140.2051  139.4119  160.3358 C.3     1  UNL1        0.0932
      9 C         140.8787  138.9824  159.0663 C.3     1  UNL1        0.0366
     10 C         142.0887  138.0975  159.1216 C.3     1  UNL1        0.0948
     11 C         142.6250  137.6422  160.4464 C.3     1  UNL1        0.0366
     12 C         141.9513  138.0719  161.7160 C.3     1  UNL1        0.0932
     13 C         142.7623  137.6679  157.8522 C.1     1  UNL1        0.0722
     14 N         143.4359  137.2383  156.5826 N.1     1  UNL1       -0.1959
     15 C         138.1765  137.7652  166.0197 C.3     1  UNL1        0.4187
     16 F         137.5678  136.7399  166.9297 F       1  UNL1       -0.1659
     17 F         138.9609  136.6881  165.3307 F       1  UNL1       -0.1659
     18 F         137.3922  138.8423  166.7086 F       1  UNL1       -0.1659
     19 C         139.2644  142.7255  164.9187 C.3     1  UNL1        0.1875
     20 O         140.1465  143.2702  166.0028 O.3     1  UNL1       -0.3470
     21 C         141.5247  142.7117  166.1997 C.3     1  UNL1        0.1467
     22 C         140.8856  141.5389  171.7726 C.3     1  UNL1        0.0896
     23 N         141.1958  141.6368  170.3083 N.3     1  UNL1       -0.2715
     24 C         142.0637  140.6027  169.6547 C.3     1  UNL1        0.0725
     25 C         142.3740  140.7007  168.1904 C.3     1  UNL1        0.0238
     26 C         141.8162  141.8328  167.3797 C.3     1  UNL1        0.0489
     27 C         140.9482  142.8669  168.0333 C.3     1  UNL1        0.0238
     28 C         140.6380  142.7689  169.4976 C.3     1  UNL1        0.0725
     29 C         142.5830  141.1039  166.3163 C.ar    1  UNL1       -0.0202
     30 C         143.5664  141.8448  165.4596 C.ar    1  UNL1       -0.0019
     31 C         144.3331  141.1160  164.3962 C.ar    1  UNL1        0.0293
     32 C         144.1164  139.6462  164.1895 C.ar    1  UNL1        0.1401
     33 F         144.8832  138.9173  163.1261 F       1  UNL1       -0.2042
     34 C         143.1330  138.9052  165.0461 C.ar    1  UNL1        0.0293
     35 C         142.3663  139.6341  166.1096 C.ar    1  UNL1       -0.0019
@<TRIPOS>BOND
     1    22    23    1
     2    23    24    1
     3    24    25    1
     4    25    26    1
     5    26    21    1
     6    21    20    1
     7    20    19    1
     8    19     1    1
     9     1     2   ar
    10     2     3   ar
    11     3    15    1
    12    15    16    1
    13    15    17    1
    14    15    18    1
    15     3     4   ar
    16     4     5   ar
    17     5     7    1
    18     7     8    1
    19     8     9    1
    20     9    10    1
    21    10    13    1
    22    13    14    3
    23    10    11    1
    24    11    12    1
    25     5     6   ar
    26    26    29    1
    27    29    30   ar
    28    30    31   ar
    29    31    32   ar
    30    32    33    1
    31    32    34   ar
    32    34    35   ar
    33    26    27    1
    34    27    28    1
    35    28    23    1
    36     6     1   ar
    37    35    29   ar
    38    12     7    1
@<TRIPOS>MOLECULE
*****
 35 38 0 0 0
SMALL
GASTEIGER

@<TRIPOS>ATOM
      1 C         142.2374  144.8648  163.1612 C.ar    1  UNL1        0.0901
      2 C         141.0184  144.7764  164.0308 C.ar    1  UNL1        0.0212
      3 C         139.6605  144.6450  163.4074 C.ar    1  UNL1        0.0754
      4 C         139.5215  144.6018  161.9145 C.ar    1  UNL1        0.0382
      5 C         140.7405  144.6902  161.0449 C.ar    1  UNL1        0.1313
      6 N         142.0985  144.8217  161.6683 N.ar    1  UNL1       -0.2325
      7 N         140.6015  144.6471  159.5520 N.pl3   1  UNL1       -0.2932
      8 C         139.6540  143.6745  158.9147 C.3     1  UNL1        0.0932
      9 C         139.5150  143.6314  157.4218 C.3     1  UNL1        0.0366
     10 C         140.3236  144.5610  156.5662 C.3     1  UNL1        0.0948
     11 C         141.2712  145.5337  157.2034 C.3     1  UNL1        0.0366
     12 C         141.4101  145.5767  158.6964 C.3     1  UNL1        0.0932
     13 C         140.1846  144.5179  155.0733 C.1     1  UNL1        0.0722
     14 N         140.0455  144.4748  153.5803 N.1     1  UNL1       -0.1959
     15 C         138.4413  144.5566  164.2770 C.3     1  UNL1        0.4187
     16 F         137.2223  144.4681  165.1465 F       1  UNL1       -0.1659
     17 F         137.6737  143.9514  163.1392 F       1  UNL1       -0.1659
     18 F         139.2090  145.1617  165.4147 F       1  UNL1       -0.1659
     19 C         143.5954  144.9963  163.7846 C.3     1  UNL1        0.1875
     20 O         144.4160  143.7712  164.0600 O.3     1  UNL1       -0.3470
     21 C         144.0092  142.8258  165.1512 C.3     1  UNL1        0.1467
     22 C         143.9170  138.1534  161.8342 C.3     1  UNL1        0.0896
     23 N         143.7480  139.2672  162.8247 N.3     1  UNL1       -0.2715
     24 C         142.6820  139.1804  163.8763 C.3     1  UNL1        0.0725
     25 C         142.5130  140.2941  164.8667 C.3     1  UNL1        0.0238
     26 C         143.4101  141.4948  164.8055 C.3     1  UNL1        0.0489
     27 C         144.4761  141.5816  163.7538 C.3     1  UNL1        0.0238
     28 C         144.6451  140.4678  162.7634 C.3     1  UNL1        0.0725
     29 C         142.5521  141.8702  165.9772 C.ar    1  UNL1       -0.0202
     30 C         141.0643  141.9716  165.8155 C.ar    1  UNL1       -0.0019
     31 C         140.2063  142.3470  166.9871 C.ar    1  UNL1        0.0293
     32 C         140.8362  142.6210  168.3206 C.ar    1  UNL1        0.1401
     33 F         139.9782  142.9965  169.4924 F       1  UNL1       -0.2042
     34 C         142.3239  142.5196  168.4825 C.ar    1  UNL1        0.0293
     35 C         143.1819  142.1442  167.3107 C.ar    1  UNL1       -0.0019
@<TRIPOS>BOND
     1    22    23    1
     2    23    24    1
     3    24    25    1
     4    25    26    1
     5    26    21    1
     6    21    20    1
     7    20    19    1
     8    19     1    1
     9     1     2   ar
    10     2     3   ar
    11     3    15    1
    12    15    16    1
    13    15    17    1
    14    15    18    1
    15     3     4   ar
    16     4     5   ar
    17     5     7    1
    18     7     8    1
    19     8     9    1
    20     9    10    1
    21    10    13    1
    22    13    14    3
    23    10    11    1
    24    11    12    1
    25     5     6   ar
    26    26    29    1
    27    29    30   ar
    28    30    31   ar
    29    31    32   ar
    30    32    33    1
    31    32    34   ar
    32    34    35   ar
    33    26    27    1
    34    27    28    1
    35    28    23    1
    36     6     1   ar
    37    35    29   ar
    38    12     7    1
@<TRIPOS>MOLECULE
*****
 35 38 0 0 0
SMALL
GASTEIGER

@<TRIPOS>ATOM
      1 C         141.1349  140.2060  163.1929 C.ar    1  UNL1        0.0901
      2 C         142.5429  140.2869  163.7038 C.ar    1  UNL1        0.0212
      3 C         143.4917  141.2976  163.1308 C.ar    1  UNL1        0.0754
      4 C         143.0325  142.2274  162.0471 C.ar    1  UNL1        0.0382
      5 C         141.6244  142.1466  161.5363 C.ar    1  UNL1        0.1313
      6 N         140.6756  141.1359  162.1092 N.ar    1  UNL1       -0.2325
      7 N         141.1653  143.0765  160.4526 N.pl3   1  UNL1       -0.2932
      8 C         141.7473  144.4551  160.3507 C.3     1  UNL1        0.0932
      9 C         141.2882  145.3850  159.2670 C.3     1  UNL1        0.0366
     10 C         140.2468  144.9361  158.2850 C.3     1  UNL1        0.0948
     11 C         139.6647  143.5574  158.3868 C.3     1  UNL1        0.0366
     12 C         140.1239  142.6276  159.4706 C.3     1  UNL1        0.0932
     13 C         139.7876  145.8659  157.2013 C.1     1  UNL1        0.0722
     14 N         139.3284  146.7958  156.1176 N.1     1  UNL1       -0.1959
     15 C         144.8998  141.3784  163.6416 C.3     1  UNL1        0.4187
     16 F         146.3078  141.4592  164.1523 F       1  UNL1       -0.1659
     17 F         144.9180  139.8900  163.8268 F       1  UNL1       -0.1659
     18 F         144.8815  142.8668  163.4563 F       1  UNL1       -0.1659
     19 C         140.1861  139.1954  163.7659 C.3     1  UNL1        0.1875
     20 O         139.5023  139.4654  165.0734 O.3     1  UNL1       -0.3470
     21 C         139.0592  140.8572  165.4147 C.3     1  UNL1        0.1467
     22 C         141.3650  141.0562  170.6574 C.3     1  UNL1        0.0896
     23 N         140.8325  141.2466  169.2681 N.3     1  UNL1       -0.2715
     24 C         140.9710  142.5761  168.5875 C.3     1  UNL1        0.0725
     25 C         140.4385  142.7665  167.1982 C.3     1  UNL1        0.0238
     26 C         139.7676  141.6275  166.4894 C.3     1  UNL1        0.0489
     27 C         139.6291  140.2980  167.1700 C.3     1  UNL1        0.0238
     28 C         140.1616  140.1076  168.5594 C.3     1  UNL1        0.0725
     29 C         139.6600  142.6895  165.4356 C.ar    1  UNL1       -0.0202
     30 C         140.8605  143.5138  165.0763 C.ar    1  UNL1       -0.0019
     31 C         140.7531  144.5759  164.0225 C.ar    1  UNL1        0.0293
     32 C         139.4450  144.8135  163.3279 C.ar    1  UNL1        0.1401
     33 F         139.3375  145.8755  162.2741 F       1  UNL1       -0.2042
     34 C         138.2444  143.9891  163.6871 C.ar    1  UNL1        0.0293
     35 C         138.3519  142.9271  164.7410 C.ar    1  UNL1       -0.0019
@<TRIPOS>BOND
     1    22    23    1
     2    23    24    1
     3    24    25    1
     4    25    26    1
     5    26    21    1
     6    21    20    1
     7    20    19    1
     8    19     1    1
     9     1     2   ar
    10     2     3   ar
    11     3    15    1
    12    15    16    1
    13    15    17    1
    14    15    18    1
    15     3     4   ar
    16     4     5   ar
    17     5     7    1
    18     7     8    1
    19     8     9    1
    20     9    10    1
    21    10    13    1
    22    13    14    3
    23    10    11    1
    24    11    12    1
    25     5     6   ar
    26    26    29    1
    27    29    30   ar
    28    30    31   ar
    29    31    32   ar
    30    32    33    1
    31    32    34   ar
    32    34    35   ar
    33    26    27    1
    34    27    28    1
    35    28    23    1
    36     6     1   ar
    37    35    29   ar
    38    12     7    1
@<TRIPOS>MOLECULE
*****
 35 38 0 0 0
SMALL
GASTEIGER

@<TRIPOS>ATOM
      1 C         140.0013  142.0042  163.9676 C.ar    1  UNL1        0.0901
      2 C         140.9228  143.1011  164.4124 C.ar    1  UNL1        0.0212
      3 C         142.1854  143.3749  163.6502 C.ar    1  UNL1        0.0754
      4 C         142.5265  142.5521  162.4434 C.ar    1  UNL1        0.0382
      5 C         141.6049  141.4552  161.9986 C.ar    1  UNL1        0.1313
      6 N         140.3423  141.1813  162.7607 N.ar    1  UNL1       -0.2325
      7 N         141.9460  140.6324  160.7917 N.pl3   1  UNL1       -0.2932
      8 C         140.9706  139.6157  160.2770 C.3     1  UNL1        0.0932
      9 C         141.3117  138.7928  159.0702 C.3     1  UNL1        0.0366
     10 C         142.6284  138.9867  158.3780 C.3     1  UNL1        0.0948
     11 C         143.6038  140.0034  158.8926 C.3     1  UNL1        0.0366
     12 C         143.2626  140.8263  160.0995 C.3     1  UNL1        0.0932
     13 C         142.9694  138.1639  157.1711 C.1     1  UNL1        0.0722
     14 N         143.3105  137.3409  155.9643 N.1     1  UNL1       -0.1959
     15 C         143.1070  144.4718  164.0949 C.3     1  UNL1        0.4187
     16 F         144.0285  145.5686  164.5396 F       1  UNL1       -0.1659
     17 F         141.9907  145.4645  163.9595 F       1  UNL1       -0.1659
     18 F         144.2232  143.4789  164.2303 F       1  UNL1       -0.1659
     19 C         138.7387  141.7303  164.7297 C.3     1  UNL1        0.1875
     20 O         138.7593  140.7984  165.9050 O.3     1  UNL1       -0.3470
     21 C         139.7720  139.6938  165.9686 C.3     1  UNL1        0.1467
     22 C         141.7881  140.9021  171.1952 C.3     1  UNL1        0.0896
     23 N         141.5011  140.5311  169.7704 N.3     1  UNL1       -0.2715
     24 C         142.6176  140.0913  168.8705 C.3     1  UNL1        0.0725
     25 C         142.3306  139.7203  167.4457 C.3     1  UNL1        0.0238
     26 C         140.9271  139.7892  166.9209 C.3     1  UNL1        0.0489
     27 C         139.8106  140.2290  167.8208 C.3     1  UNL1        0.0238
     28 C         140.0976  140.6000  169.2456 C.3     1  UNL1        0.0725
     29 C         141.6425  139.3162  165.6901 C.ar    1  UNL1       -0.0202
     30 C         141.0287  138.2535  164.8276 C.ar    1  UNL1       -0.0019
     31 C         141.7440  137.7805  163.5970 C.ar    1  UNL1        0.0293
     32 C         143.0731  138.3703  163.2288 C.ar    1  UNL1        0.1401
     33 F         143.7885  137.8973  161.9981 F       1  UNL1       -0.2042
     34 C         143.6870  139.4329  164.0913 C.ar    1  UNL1        0.0293
     35 C         142.9717  139.9059  165.3220 C.ar    1  UNL1       -0.0019
@<TRIPOS>BOND
     1    22    23    1
     2    23    24    1
     3    24    25    1
     4    25    26    1
     5    26    21    1
     6    21    20    1
     7    20    19    1
     8    19     1    1
     9     1     2   ar
    10     2     3   ar
    11     3    15    1
    12    15    16    1
    13    15    17    1
    14    15    18    1
    15     3     4   ar
    16     4     5   ar
    17     5     7    1
    18     7     8    1
    19     8     9    1
    20     9    10    1
    21    10    13    1
    22    13    14    3
    23    10    11    1
    24    11    12    1
    25     5     6   ar
    26    26    29    1
    27    29    30   ar
    28    30    31   ar
    29    31    32   ar
    30    32    33    1
    31    32    34   ar
    32    34    35   ar
    33    26    27    1
    34    27    28    1
    35    28    23    1
    36     6     1   ar
    37    35    29   ar
    38    12     7    1
