@<TRIPOS>MOLECULE
*****
 33 37 0 0 0
SMALL
GASTEIGER

@<TRIPOS>ATOM
      1 C         144.3636  141.1179  158.3874 C.ar    1  UNL1        0.1317
      2 C         143.8163  142.2742  159.1705 C.ar    1  UNL1        0.0346
      3 C         142.9509  142.0252  160.3701 C.ar    1  UNL1        0.0121
      4 C         142.6328  140.6197  160.7866 C.ar    1  UNL1        0.1076
      5 C         143.1801  139.4633  160.0034 C.ar    1  UNL1        0.1080
      6 N         144.0455  139.7124  158.8039 N.ar    1  UNL1       -0.2289
      7 C         148.6704  142.7709  153.3243 C.3     1  UNL1        0.1206
      8 C         147.9125  141.7257  152.5605 C.3     1  UNL1        0.0323
      9 C         146.8552  141.1658  153.4655 C.3     1  UNL1        0.0298
     10 C         146.9597  141.8650  154.7885 C.3     1  UNL1        0.0960
     11 C         145.8707  140.8353  154.7269 C.3     1  UNL1        0.0487
     12 C         145.0054  140.5863  155.9266 C.3     1  UNL1        0.0946
     13 N         145.2290  141.3670  157.1877 N.pl3   1  UNL1       -0.2931
     14 C         146.3180  142.3966  157.2493 C.3     1  UNL1        0.0946
     15 C         147.1833  142.6457  156.0497 C.3     1  UNL1        0.0487
     16 O         148.0815  142.8570  154.7012 O.3     1  UNL1       -0.3605
     17 C         149.8158  143.5867  152.8027 C.3     1  UNL1        0.0712
     18 O         151.4443  142.3741  154.4236 O.co2   1  UNL1       -0.5491
     19 C         151.1697  143.4710  153.4380 C.2     1  UNL1        0.0528
     20 O         152.2489  144.4521  153.0878 O.co2   1  UNL1       -0.5491
     21 C         141.7674  140.3706  161.9862 C.2     1  UNL1        0.3767
     22 N         141.0921  139.0769  162.3328 N.2     1  UNL1       -0.0308
     23 C         140.3327  139.2781  163.6106 C.2     1  UNL1        0.2320
     24 C         139.4802  138.3533  164.4279 C.2     1  UNL1        0.0537
     25 C         138.8338  138.8467  165.6884 C.2     1  UNL1        0.0714
     26 C         139.0399  140.2648  166.1315 C.2     1  UNL1       -0.0133
     27 C         139.8924  141.1896  165.3142 C.3     1  UNL1        0.1037
     28 C         140.5388  140.6963  164.0538 C.2     1  UNL1        0.2178
     29 N         141.4255  141.3715  163.0499 N.2     1  UNL1       -0.0347
     30 C         137.9813  137.9218  166.5057 C.3     1  UNL1        0.4184
     31 F         137.1289  136.9970  167.3230 F       1  UNL1       -0.1659
     32 F         137.5603  139.0735  167.3696 F       1  UNL1       -0.1659
     33 F         138.4024  136.7702  165.6417 F       1  UNL1       -0.1659
@<TRIPOS>UNITY_ATOM_ATTR
18 1
charge -1
@<TRIPOS>BOND
     1    18    19   ar
     2    19    20   ar
     3    19    17    1
     4    17     7    1
     5     7     8    1
     6     8     9    1
     7     9    10    1
     8    10    11    1
     9    11    12    1
    10    12    13    1
    11    13     1    1
    12     1     2   ar
    13     2     3   ar
    14     3     4   ar
    15     4    21    1
    16    21    22    2
    17    22    23    1
    18    23    24    2
    19    24    25    1
    20    25    30    1
    21    30    31    1
    22    30    32    1
    23    30    33    1
    24    25    26    2
    25    26    27    1
    26    27    28    1
    27    28    29    2
    28     4     5   ar
    29     5     6   ar
    30    13    14    1
    31    14    15    1
    32    10    16    1
    33    16     7    1
    34    15    10    1
    35     6     1   ar
    36    29    21    1
    37    28    23    1
@<TRIPOS>MOLECULE
*****
 33 37 0 0 0
SMALL
GASTEIGER

@<TRIPOS>ATOM
      1 C         142.1244  140.4804  162.2989 C.ar    1  UNL1        0.1317
      2 C         141.7348  141.5782  161.3539 C.ar    1  UNL1        0.0346
      3 C         142.5093  141.7868  160.0863 C.ar    1  UNL1        0.0121
      4 C         143.6734  140.8975  159.7637 C.ar    1  UNL1        0.1076
      5 C         144.0630  139.7996  160.7087 C.ar    1  UNL1        0.1080
      6 N         143.2885  139.5911  161.9763 N.ar    1  UNL1       -0.2289
      7 C         139.1256  139.9232  168.4317 C.3     1  UNL1        0.1206
      8 C         138.0927  139.1441  167.6725 C.3     1  UNL1        0.0323
      9 C         138.5102  139.1018  166.2323 C.3     1  UNL1        0.0298
     10 C         139.8010  139.8547  166.1015 C.3     1  UNL1        0.0960
     11 C         139.2938  139.2843  164.8102 C.3     1  UNL1        0.0487
     12 C         140.0683  139.4929  163.5427 C.3     1  UNL1        0.0946
     13 N         141.3499  140.2718  163.5665 N.pl3   1  UNL1       -0.2931
     14 C         141.8571  140.8422  164.8577 C.3     1  UNL1        0.0946
     15 C         141.0826  140.6336  166.1252 C.3     1  UNL1        0.0487
     16 O         140.1813  140.3623  167.4608 O.3     1  UNL1       -0.3605
     17 C         139.1061  140.2124  169.9034 C.3     1  UNL1        0.0712
     18 O         140.5275  141.2170  171.8321 O.co2   1  UNL1       -0.5491
     19 C         140.3923  140.2753  170.6725 C.2     1  UNL1        0.0528
     20 O         141.5435  139.3965  170.2819 O.co2   1  UNL1       -0.5491
     21 C         144.4478  141.1060  158.4962 C.2     1  UNL1        0.3767
     22 N         145.3933  142.2365  158.2165 N.2     1  UNL1       -0.0308
     23 C         145.9426  142.0499  156.8333 C.2     1  UNL1        0.2320
     24 C         146.9163  142.8534  156.0231 C.2     1  UNL1        0.0537
     25 C         147.2841  142.4110  154.6378 C.2     1  UNL1        0.0714
     26 C         146.6781  141.1653  154.0626 C.2     1  UNL1       -0.0133
     27 C         145.7044  140.3618  154.8727 C.3     1  UNL1        0.1037
     28 C         145.3367  140.8040  156.2580 C.2     1  UNL1        0.2178
     29 N         144.4129  140.2207  157.2858 N.2     1  UNL1       -0.0347
     30 C         148.2577  143.2145  153.8276 C.3     1  UNL1        0.4184
     31 F         149.2314  144.0180  153.0175 F       1  UNL1       -0.1659
     32 F         147.4278  144.4441  154.0497 F       1  UNL1       -0.1659
     33 F         149.0877  141.9849  153.6056 F       1  UNL1       -0.1659
@<TRIPOS>UNITY_ATOM_ATTR
18 1
charge -1
@<TRIPOS>BOND
     1    18    19   ar
     2    19    20   ar
     3    19    17    1
     4    17     7    1
     5     7     8    1
     6     8     9    1
     7     9    10    1
     8    10    11    1
     9    11    12    1
    10    12    13    1
    11    13     1    1
    12     1     2   ar
    13     2     3   ar
    14     3     4   ar
    15     4    21    1
    16    21    22    2
    17    22    23    1
    18    23    24    2
    19    24    25    1
    20    25    30    1
    21    30    31    1
    22    30    32    1
    23    30    33    1
    24    25    26    2
    25    26    27    1
    26    27    28    1
    27    28    29    2
    28     4     5   ar
    29     5     6   ar
    30    13    14    1
    31    14    15    1
    32    10    16    1
    33    16     7    1
    34    15    10    1
    35     6     1   ar
    36    29    21    1
    37    28    23    1
@<TRIPOS>MOLECULE
*****
 33 37 0 0 0
SMALL
GASTEIGER

@<TRIPOS>ATOM
      1 C         139.8824  144.8819  158.0905 C.ar    1  UNL1        0.1317
      2 C         139.5781  143.4160  157.9980 C.ar    1  UNL1        0.0346
      3 C         139.4371  142.5989  159.2481 C.ar    1  UNL1        0.0121
      4 C         139.6003  143.2478  160.5906 C.ar    1  UNL1        0.1076
      5 C         139.9046  144.7137  160.6831 C.ar    1  UNL1        0.1080
      6 N         140.0456  145.5307  159.4331 N.ar    1  UNL1       -0.2289
      7 C         140.0375  149.0928  152.6905 C.3     1  UNL1        0.1206
      8 C         141.0077  148.0881  152.1433 C.3     1  UNL1        0.0323
      9 C         141.1734  147.0006  153.1631 C.3     1  UNL1        0.0298
     10 C         140.3055  147.3331  154.3405 C.3     1  UNL1        0.0960
     11 C         141.0752  146.0545  154.4916 C.3     1  UNL1        0.0487
     12 C         140.9342  145.2375  155.7416 C.3     1  UNL1        0.0946
     13 N         140.0234  145.6990  156.8405 N.pl3   1  UNL1       -0.2931
     14 C         139.2537  146.9775  156.6894 C.3     1  UNL1        0.0946
     15 C         139.3948  147.7946  155.4394 C.3     1  UNL1        0.0487
     16 O         139.6035  148.6261  154.0484 O.3     1  UNL1       -0.3605
     17 C         139.5813  150.3442  152.0009 C.3     1  UNL1        0.0712
     18 O         140.3309  151.8920  153.9483 O.co2   1  UNL1       -0.5491
     19 C         139.4319  151.6177  152.7794 C.2     1  UNL1        0.0528
     20 O         138.3835  152.6168  152.3889 O.co2   1  UNL1       -0.5491
     21 C         139.4593  142.4307  161.8406 C.2     1  UNL1        0.3767
     22 N         138.7347  141.1230  161.9621 N.2     1  UNL1       -0.0308
     23 C         138.8457  140.6620  163.3851 C.2     1  UNL1        0.2320
     24 C         138.3269  139.4430  164.0886 C.2     1  UNL1        0.0537
     25 C         138.6014  139.2469  165.5503 C.2     1  UNL1        0.0714
     26 C         139.3947  140.2697  166.3083 C.2     1  UNL1       -0.0133
     27 C         139.9135  141.4886  165.6047 C.3     1  UNL1        0.1037
     28 C         139.6390  141.6848  164.1432 C.2     1  UNL1        0.2178
     29 N         140.0182  142.7779  163.1886 N.2     1  UNL1       -0.0347
     30 C         138.0827  138.0279  166.2538 C.3     1  UNL1        0.4184
     31 F         137.5639  136.8089  166.9573 F       1  UNL1       -0.1659
     32 F         137.3518  138.9020  167.2294 F       1  UNL1       -0.1659
     33 F         138.8135  137.1538  165.2782 F       1  UNL1       -0.1659
@<TRIPOS>UNITY_ATOM_ATTR
18 1
charge -1
@<TRIPOS>BOND
     1    18    19   ar
     2    19    20   ar
     3    19    17    1
     4    17     7    1
     5     7     8    1
     6     8     9    1
     7     9    10    1
     8    10    11    1
     9    11    12    1
    10    12    13    1
    11    13     1    1
    12     1     2   ar
    13     2     3   ar
    14     3     4   ar
    15     4    21    1
    16    21    22    2
    17    22    23    1
    18    23    24    2
    19    24    25    1
    20    25    30    1
    21    30    31    1
    22    30    32    1
    23    30    33    1
    24    25    26    2
    25    26    27    1
    26    27    28    1
    27    28    29    2
    28     4     5   ar
    29     5     6   ar
    30    13    14    1
    31    14    15    1
    32    10    16    1
    33    16     7    1
    34    15    10    1
    35     6     1   ar
    36    29    21    1
    37    28    23    1
@<TRIPOS>MOLECULE
*****
 33 37 0 0 0
SMALL
GASTEIGER

@<TRIPOS>ATOM
      1 C         142.5662  139.4956  162.6535 C.ar    1  UNL1        0.1317
      2 C         143.6836  138.6586  162.1052 C.ar    1  UNL1        0.0346
      3 C         143.6331  138.1771  160.6855 C.ar    1  UNL1        0.0121
      4 C         142.4651  138.5326  159.8141 C.ar    1  UNL1        0.1076
      5 C         141.3476  139.3697  160.3624 C.ar    1  UNL1        0.1080
      6 N         141.3982  139.8512  161.7821 N.ar    1  UNL1       -0.2289
      7 C         142.4996  141.0320  169.3282 C.3     1  UNL1        0.1206
      8 C         143.0915  142.3307  168.8666 C.3     1  UNL1        0.0323
      9 C         143.2263  142.2740  167.3737 C.3     1  UNL1        0.0298
     10 C         142.7178  140.9403  166.9126 C.3     1  UNL1        0.0960
     11 C         143.2051  141.8242  165.8031 C.3     1  UNL1        0.0487
     12 C         143.1546  141.3427  164.3834 C.3     1  UNL1        0.0946
     13 N         142.6167  139.9772  164.0733 N.pl3   1  UNL1       -0.2931
     14 C         142.1294  139.0933  165.1828 C.3     1  UNL1        0.0946
     15 C         142.1799  139.5748  166.6025 C.3     1  UNL1        0.0487
     16 O         142.2686  140.1727  168.1206 O.3     1  UNL1       -0.3605
     17 C         142.1925  140.6582  170.7480 C.3     1  UNL1        0.0712
     18 O         140.4635  142.0873  172.0587 O.co2   1  UNL1       -0.5491
     19 C         140.8066  140.8458  171.2900 C.2     1  UNL1        0.0528
     20 O         139.7636  139.7919  171.0633 O.co2   1  UNL1       -0.5491
     21 C         142.4145  138.0511  158.3944 C.2     1  UNL1        0.3767
     22 N         142.3392  136.6202  157.9509 N.2     1  UNL1       -0.0308
     23 C         142.3085  136.6006  156.4513 C.2     1  UNL1        0.2320
     24 C         142.2365  135.4742  155.4635 C.2     1  UNL1        0.0537
     25 C         142.2209  135.7667  153.9923 C.2     1  UNL1        0.0714
     26 C         142.2774  137.1855  153.5090 C.2     1  UNL1       -0.0133
     27 C         142.3494  138.3120  154.4969 C.3     1  UNL1        0.1037
     28 C         142.3649  138.0196  155.9680 C.2     1  UNL1        0.2178
     29 N         142.4305  138.9160  157.1689 N.2     1  UNL1       -0.0347
     30 C         142.1489  134.6402  153.0044 C.3     1  UNL1        0.4184
     31 F         142.0769  133.5137  152.0165 F       1  UNL1       -0.1659
     32 F         142.6845  133.6972  154.0407 F       1  UNL1       -0.1659
     33 F         141.6134  135.5832  151.9681 F       1  UNL1       -0.1659
@<TRIPOS>UNITY_ATOM_ATTR
18 1
charge -1
@<TRIPOS>BOND
     1    18    19   ar
     2    19    20   ar
     3    19    17    1
     4    17     7    1
     5     7     8    1
     6     8     9    1
     7     9    10    1
     8    10    11    1
     9    11    12    1
    10    12    13    1
    11    13     1    1
    12     1     2   ar
    13     2     3   ar
    14     3     4   ar
    15     4    21    1
    16    21    22    2
    17    22    23    1
    18    23    24    2
    19    24    25    1
    20    25    30    1
    21    30    31    1
    22    30    32    1
    23    30    33    1
    24    25    26    2
    25    26    27    1
    26    27    28    1
    27    28    29    2
    28     4     5   ar
    29     5     6   ar
    30    13    14    1
    31    14    15    1
    32    10    16    1
    33    16     7    1
    34    15    10    1
    35     6     1   ar
    36    29    21    1
    37    28    23    1
@<TRIPOS>MOLECULE
*****
 33 37 0 0 0
SMALL
GASTEIGER

@<TRIPOS>ATOM
      1 C         139.7493  144.6257  157.4194 C.ar    1  UNL1        0.1317
      2 C         139.2735  143.2434  157.0835 C.ar    1  UNL1        0.0346
      3 C         139.1426  142.2119  158.1647 C.ar    1  UNL1        0.0121
      4 C         139.4877  142.5626  159.5817 C.ar    1  UNL1        0.1076
      5 C         139.9636  143.9450  159.9175 C.ar    1  UNL1        0.1080
      6 N         140.0944  144.9765  158.8364 N.ar    1  UNL1       -0.2289
      7 C         139.9065  149.7743  152.9046 C.3     1  UNL1        0.1206
      8 C         140.7801  148.8410  152.1199 C.3     1  UNL1        0.0323
      9 C         140.9256  147.5715  152.9056 C.3     1  UNL1        0.0298
     10 C         140.1419  147.7202  154.1760 C.3     1  UNL1        0.0960
     11 C         140.8330  146.3962  154.0369 C.3     1  UNL1        0.0487
     12 C         140.7022  145.3647  155.1181 C.3     1  UNL1        0.0946
     13 N         139.8802  145.6572  156.3382 N.pl3   1  UNL1       -0.2931
     14 C         139.1891  146.9812  156.4773 C.3     1  UNL1        0.0946
     15 C         139.3200  148.0127  155.3962 C.3     1  UNL1        0.0487
     16 O         139.5121  149.0817  154.1753 O.3     1  UNL1       -0.3605
     17 C         139.4989  151.1573  152.4913 C.3     1  UNL1        0.0712
     18 O         137.9418  153.0474  153.3588 O.co2   1  UNL1       -0.5491
     19 C         139.1531  152.1800  153.5326 C.2     1  UNL1        0.0528
     20 O         140.0186  152.3354  154.7479 O.co2   1  UNL1       -0.5491
     21 C         139.3568  141.5311  160.6628 C.2     1  UNL1        0.3767
     22 N         138.7248  141.7384  162.0073 N.2     1  UNL1       -0.0308
     23 C         138.8124  140.4467  162.7647 C.2     1  UNL1        0.2320
     24 C         138.3560  140.0562  164.1392 C.2     1  UNL1        0.0537
     25 C         138.5858  138.6600  164.6373 C.2     1  UNL1        0.0714
     26 C         139.2719  137.6545  163.7610 C.2     1  UNL1       -0.0133
     27 C         139.7283  138.0450  162.3865 C.3     1  UNL1        0.1037
     28 C         139.4986  139.4410  161.8883 C.2     1  UNL1        0.2178
     29 N         139.8350  140.1113  160.5893 N.2     1  UNL1       -0.0347
     30 C         138.1294  138.2695  166.0118 C.3     1  UNL1        0.4184
     31 F         137.6731  137.8790  167.3863 F       1  UNL1       -0.1659
     32 F         138.5355  136.8506  165.7435 F       1  UNL1       -0.1659
     33 F         137.7234  139.6884  166.2801 F       1  UNL1       -0.1659
@<TRIPOS>UNITY_ATOM_ATTR
18 1
charge -1
@<TRIPOS>BOND
     1    18    19   ar
     2    19    20   ar
     3    19    17    1
     4    17     7    1
     5     7     8    1
     6     8     9    1
     7     9    10    1
     8    10    11    1
     9    11    12    1
    10    12    13    1
    11    13     1    1
    12     1     2   ar
    13     2     3   ar
    14     3     4   ar
    15     4    21    1
    16    21    22    2
    17    22    23    1
    18    23    24    2
    19    24    25    1
    20    25    30    1
    21    30    31    1
    22    30    32    1
    23    30    33    1
    24    25    26    2
    25    26    27    1
    26    27    28    1
    27    28    29    2
    28     4     5   ar
    29     5     6   ar
    30    13    14    1
    31    14    15    1
    32    10    16    1
    33    16     7    1
    34    15    10    1
    35     6     1   ar
    36    29    21    1
    37    28    23    1
@<TRIPOS>MOLECULE
*****
 33 37 0 0 0
SMALL
GASTEIGER

@<TRIPOS>ATOM
      1 C         144.2715  140.9635  158.5976 C.ar    1  UNL1        0.1317
      2 C         143.8144  142.1023  159.4602 C.ar    1  UNL1        0.0346
      3 C         142.9580  141.8357  160.6626 C.ar    1  UNL1        0.0121
      4 C         142.5587  140.4303  161.0022 C.ar    1  UNL1        0.1076
      5 C         143.0159  139.2914  160.1395 C.ar    1  UNL1        0.1080
      6 N         143.8722  139.5580  158.9372 N.ar    1  UNL1       -0.2289
      7 C         148.4838  142.7460  153.4991 C.3     1  UNL1        0.1206
      8 C         147.8330  141.6007  152.7816 C.3     1  UNL1        0.0323
      9 C         146.8174  140.9932  153.7035 C.3     1  UNL1        0.0298
     10 C         146.8406  141.7631  154.9906 C.3     1  UNL1        0.0960
     11 C         145.8488  140.6380  154.9704 C.3     1  UNL1        0.0487
     12 C         144.9925  140.3715  156.1728 C.3     1  UNL1        0.0946
     13 N         145.1279  141.2301  157.3952 N.pl3   1  UNL1       -0.2931
     14 C         146.1197  142.3552  157.4154 C.3     1  UNL1        0.0946
     15 C         146.9760  142.6217  156.2131 C.3     1  UNL1        0.0487
     16 O         147.8705  142.8464  154.8643 O.3     1  UNL1       -0.3605
     17 C         149.5591  143.6348  152.9482 C.3     1  UNL1        0.0712
     18 O         152.0129  144.4777  153.0832 O.co2   1  UNL1       -0.5491
     19 C         150.9903  143.4102  153.3371 C.2     1  UNL1        0.0528
     20 O         151.3988  142.1181  153.9802 O.co2   1  UNL1       -0.5491
     21 C         141.7024  140.1636  162.2045 C.2     1  UNL1        0.3767
     22 N         141.9646  140.6499  163.5990 N.2     1  UNL1       -0.0308
     23 C         140.8577  140.1507  164.4798 C.2     1  UNL1        0.2320
     24 C         140.5892  140.3172  165.9461 C.2     1  UNL1        0.0537
     25 C         139.3744  139.6889  166.5622 C.2     1  UNL1        0.0714
     26 C         138.4282  138.8941  165.7120 C.2     1  UNL1       -0.0133
     27 C         138.6967  138.7276  164.2457 C.3     1  UNL1        0.1037
     28 C         139.9114  139.3559  163.6295 C.2     1  UNL1        0.2178
     29 N         140.4335  139.3639  162.2234 N.2     1  UNL1       -0.0347
     30 C         139.1059  139.8554  168.0286 C.3     1  UNL1        0.4184
     31 F         138.8374  140.0219  169.4949 F       1  UNL1       -0.1659
     32 F         137.9079  138.9605  167.9108 F       1  UNL1       -0.1659
     33 F         140.3039  140.7503  168.1464 F       1  UNL1       -0.1659
@<TRIPOS>UNITY_ATOM_ATTR
18 1
charge -1
@<TRIPOS>BOND
     1    18    19   ar
     2    19    20   ar
     3    19    17    1
     4    17     7    1
     5     7     8    1
     6     8     9    1
     7     9    10    1
     8    10    11    1
     9    11    12    1
    10    12    13    1
    11    13     1    1
    12     1     2   ar
    13     2     3   ar
    14     3     4   ar
    15     4    21    1
    16    21    22    2
    17    22    23    1
    18    23    24    2
    19    24    25    1
    20    25    30    1
    21    30    31    1
    22    30    32    1
    23    30    33    1
    24    25    26    2
    25    26    27    1
    26    27    28    1
    27    28    29    2
    28     4     5   ar
    29     5     6   ar
    30    13    14    1
    31    14    15    1
    32    10    16    1
    33    16     7    1
    34    15    10    1
    35     6     1   ar
    36    29    21    1
    37    28    23    1
@<TRIPOS>MOLECULE
*****
 33 37 0 0 0
SMALL
GASTEIGER

@<TRIPOS>ATOM
      1 C         144.0663  141.5164  160.2155 C.ar    1  UNL1        0.1317
      2 C         143.8437  142.8279  160.9086 C.ar    1  UNL1        0.0346
      3 C         143.3940  142.8532  162.3394 C.ar    1  UNL1        0.0121
      4 C         143.1667  141.5669  163.0770 C.ar    1  UNL1        0.1076
      5 C         143.3893  140.2554  162.3838 C.ar    1  UNL1        0.1080
      6 N         143.8390  140.2302  160.9530 N.ar    1  UNL1       -0.2289
      7 C         146.5239  142.0137  153.8414 C.3     1  UNL1        0.1206
      8 C         145.6912  140.7893  153.6013 C.3     1  UNL1        0.0323
      9 C         145.0062  140.4350  154.8880 C.3     1  UNL1        0.0298
     10 C         145.4154  141.4404  155.9232 C.3     1  UNL1        0.0960
     11 C         144.4695  140.3928  156.4306 C.3     1  UNL1        0.0487
     12 C         144.0198  140.4181  157.8614 C.3     1  UNL1        0.0946
     13 N         144.5160  141.4911  158.7846 N.pl3   1  UNL1       -0.2931
     14 C         145.4619  142.5388  158.2772 C.3     1  UNL1        0.0946
     15 C         145.9117  142.5134  156.8464 C.3     1  UNL1        0.0487
     16 O         146.3535  142.4161  155.2763 O.3     1  UNL1       -0.3605
     17 C         147.3771  142.7129  152.8251 C.3     1  UNL1        0.0712
     18 O         149.5093  144.1783  153.0619 O.co2   1  UNL1       -0.5491
     19 C         148.0204  144.0255  153.1613 C.2     1  UNL1        0.0528
     20 O         147.1749  145.1854  153.5968 O.co2   1  UNL1       -0.5491
     21 C         142.7170  141.5922  164.5077 C.2     1  UNL1        0.3767
     22 N         141.7190  142.5416  165.1016 N.2     1  UNL1       -0.0308
     23 C         141.5715  142.2086  166.5567 C.2     1  UNL1        0.2320
     24 C         140.7286  142.8081  167.6430 C.2     1  UNL1        0.0537
     25 C         140.7925  142.2523  169.0349 C.2     1  UNL1        0.0714
     26 C         141.6993  141.0972  169.3403 C.2     1  UNL1       -0.0133
     27 C         142.5422  140.4978  168.2540 C.3     1  UNL1        0.1037
     28 C         142.4783  141.0535  166.8622 C.2     1  UNL1        0.2178
     29 N         143.1863  140.6725  165.5959 N.2     1  UNL1       -0.0347
     30 C         139.9496  142.8518  170.1212 C.3     1  UNL1        0.4184
     31 F         139.1066  143.4512  171.2076 F       1  UNL1       -0.1659
     32 F         140.7084  144.1400  169.9992 F       1  UNL1       -0.1659
     33 F         139.1908  141.5636  170.2433 F       1  UNL1       -0.1659
@<TRIPOS>UNITY_ATOM_ATTR
18 1
charge -1
@<TRIPOS>BOND
     1    18    19   ar
     2    19    20   ar
     3    19    17    1
     4    17     7    1
     5     7     8    1
     6     8     9    1
     7     9    10    1
     8    10    11    1
     9    11    12    1
    10    12    13    1
    11    13     1    1
    12     1     2   ar
    13     2     3   ar
    14     3     4   ar
    15     4    21    1
    16    21    22    2
    17    22    23    1
    18    23    24    2
    19    24    25    1
    20    25    30    1
    21    30    31    1
    22    30    32    1
    23    30    33    1
    24    25    26    2
    25    26    27    1
    26    27    28    1
    27    28    29    2
    28     4     5   ar
    29     5     6   ar
    30    13    14    1
    31    14    15    1
    32    10    16    1
    33    16     7    1
    34    15    10    1
    35     6     1   ar
    36    29    21    1
    37    28    23    1
@<TRIPOS>MOLECULE
*****
 33 37 0 0 0
SMALL
GASTEIGER

@<TRIPOS>ATOM
      1 C         140.0893  144.1310  159.2448 C.ar    1  UNL1        0.1317
      2 C         140.1313  142.6330  159.3096 C.ar    1  UNL1        0.0346
      3 C         139.9627  141.9342  160.6262 C.ar    1  UNL1        0.0121
      4 C         139.7521  142.7334  161.8779 C.ar    1  UNL1        0.1076
      5 C         139.7101  144.2315  161.8131 C.ar    1  UNL1        0.1080
      6 N         139.8787  144.9302  160.4966 N.ar    1  UNL1       -0.2289
      7 C         140.4968  147.9028  153.5419 C.3     1  UNL1        0.1206
      8 C         141.2126  146.7026  152.9965 C.3     1  UNL1        0.0323
      9 C         141.2734  145.6671  154.0802 C.3     1  UNL1        0.0298
     10 C         140.5952  146.2273  155.2952 C.3     1  UNL1        0.0960
     11 C         141.1307  144.8386  155.4812 C.3     1  UNL1        0.0487
     12 C         140.9621  144.1398  156.7977 C.3     1  UNL1        0.0946
     13 N         140.2579  144.8298  157.9282 N.pl3   1  UNL1       -0.2931
     14 C         139.7224  146.2185  157.7423 C.3     1  UNL1        0.0946
     15 C         139.8911  146.9173  156.4258 C.3     1  UNL1        0.0487
     16 O         140.1153  147.6090  154.9625 O.3     1  UNL1       -0.3605
     17 C         140.2126  149.1735  152.7974 C.3     1  UNL1        0.0712
     18 O         141.7136  151.1457  153.5764 O.co2   1  UNL1       -0.5491
     19 C         140.3642  150.4968  153.4871 C.2     1  UNL1        0.0528
     20 O         139.1665  151.1713  154.0875 O.co2   1  UNL1       -0.5491
     21 C         139.5835  142.0347  163.1944 C.2     1  UNL1        0.3767
     22 N         140.2867  142.3815  164.4731 N.2     1  UNL1       -0.0308
     23 C         139.8199  141.4276  165.5324 C.2     1  UNL1        0.2320
     24 C         140.1698  141.2907  166.9846 C.2     1  UNL1        0.0537
     25 C         139.5278  140.2173  167.8128 C.2     1  UNL1        0.0714
     26 C         138.5360  139.2809  167.1887 C.2     1  UNL1       -0.0133
     27 C         138.1861  139.4178  165.7365 C.3     1  UNL1        0.1037
     28 C         138.8280  140.4911  164.9084 C.2     1  UNL1        0.2178
     29 N         138.6819  140.8663  163.4635 N.2     1  UNL1       -0.0347
     30 C         139.8777  140.0804  169.2649 C.3     1  UNL1        0.4184
     31 F         140.2276  139.9435  170.7171 F       1  UNL1       -0.1659
     32 F         138.4205  140.1131  169.6191 F       1  UNL1       -0.1659
     33 F         141.3349  140.0477  168.9108 F       1  UNL1       -0.1659
@<TRIPOS>UNITY_ATOM_ATTR
18 1
charge -1
@<TRIPOS>BOND
     1    18    19   ar
     2    19    20   ar
     3    19    17    1
     4    17     7    1
     5     7     8    1
     6     8     9    1
     7     9    10    1
     8    10    11    1
     9    11    12    1
    10    12    13    1
    11    13     1    1
    12     1     2   ar
    13     2     3   ar
    14     3     4   ar
    15     4    21    1
    16    21    22    2
    17    22    23    1
    18    23    24    2
    19    24    25    1
    20    25    30    1
    21    30    31    1
    22    30    32    1
    23    30    33    1
    24    25    26    2
    25    26    27    1
    26    27    28    1
    27    28    29    2
    28     4     5   ar
    29     5     6   ar
    30    13    14    1
    31    14    15    1
    32    10    16    1
    33    16     7    1
    34    15    10    1
    35     6     1   ar
    36    29    21    1
    37    28    23    1
@<TRIPOS>MOLECULE
*****
 33 37 0 0 0
SMALL
GASTEIGER

@<TRIPOS>ATOM
      1 C         141.4129  144.1648  160.2949 C.ar    1  UNL1        0.1317
      2 C         140.2040  143.4881  160.8697 C.ar    1  UNL1        0.0346
      3 C         140.2236  142.9933  162.2857 C.ar    1  UNL1        0.0121
      4 C         141.4522  143.1752  163.1267 C.ar    1  UNL1        0.1076
      5 C         142.6612  143.8520  162.5519 C.ar    1  UNL1        0.1080
      6 N         142.6415  144.3468  161.1360 N.ar    1  UNL1       -0.2289
      7 C         140.7910  146.9066  154.0490 C.3     1  UNL1        0.1206
      8 C         141.8567  145.9147  153.6876 C.3     1  UNL1        0.0323
      9 C         142.2046  145.1376  154.9226 C.3     1  UNL1        0.0298
     10 C         141.3540  145.6492  156.0472 C.3     1  UNL1        0.0960
     11 C         142.2867  144.5428  156.4422 C.3     1  UNL1        0.0487
     12 C         142.3063  144.0480  157.8580 C.3     1  UNL1        0.0946
     13 N         141.3933  144.6597  158.8790 N.pl3   1  UNL1       -0.2931
     14 C         140.4606  145.7661  158.4840 C.3     1  UNL1        0.0946
     15 C         140.4410  146.2608  157.0681 C.3     1  UNL1        0.0487
     16 O         140.4804  146.7425  155.5073 O.3     1  UNL1       -0.3605
     17 C         140.1488  147.8899  153.1160 C.3     1  UNL1        0.0712
     18 O         140.8064  150.3708  152.7128 O.co2   1  UNL1       -0.5491
     19 C         140.0561  149.3371  153.4992 C.2     1  UNL1        0.0528
     20 O         139.2131  149.7507  154.6690 O.co2   1  UNL1       -0.5491
     21 C         141.4719  142.6804  164.5426 C.2     1  UNL1        0.3767
     22 N         140.3628  141.9456  165.2353 N.2     1  UNL1       -0.0308
     23 C         140.8096  141.6446  166.6352 C.2     1  UNL1        0.2320
     24 C         140.1340  140.9416  167.7751 C.2     1  UNL1        0.0537
     25 C         140.8437  140.7876  169.0876 C.2     1  UNL1        0.0714
     26 C         142.2289  141.3364  169.2602 C.2     1  UNL1       -0.0133
     27 C         142.9045  142.0394  168.1202 C.3     1  UNL1        0.1037
     28 C         142.1949  142.1935  166.8078 C.2     1  UNL1        0.2178
     29 N         142.6042  142.8336  165.5145 N.2     1  UNL1       -0.0347
     30 C         140.1681  140.0846  170.2276 C.3     1  UNL1        0.4184
     31 F         139.4925  139.3817  171.3675 F       1  UNL1       -0.1659
     32 F         139.0258  141.0536  170.1481 F       1  UNL1       -0.1659
     33 F         141.3104  139.1157  170.3070 F       1  UNL1       -0.1659
@<TRIPOS>UNITY_ATOM_ATTR
18 1
charge -1
@<TRIPOS>BOND
     1    18    19   ar
     2    19    20   ar
     3    19    17    1
     4    17     7    1
     5     7     8    1
     6     8     9    1
     7     9    10    1
     8    10    11    1
     9    11    12    1
    10    12    13    1
    11    13     1    1
    12     1     2   ar
    13     2     3   ar
    14     3     4   ar
    15     4    21    1
    16    21    22    2
    17    22    23    1
    18    23    24    2
    19    24    25    1
    20    25    30    1
    21    30    31    1
    22    30    32    1
    23    30    33    1
    24    25    26    2
    25    26    27    1
    26    27    28    1
    27    28    29    2
    28     4     5   ar
    29     5     6   ar
    30    13    14    1
    31    14    15    1
    32    10    16    1
    33    16     7    1
    34    15    10    1
    35     6     1   ar
    36    29    21    1
    37    28    23    1
