@<TRIPOS>MOLECULE
*****
 34 37 0 0 0
SMALL
GASTEIGER

@<TRIPOS>ATOM
      1 C         139.8173  140.5296  164.7930 C.ar    1  UNL1        0.0827
      2 C         138.9285  139.9000  165.8243 C.ar    1  UNL1        0.0230
      3 C         138.5432  138.4555  165.7012 C.ar    1  UNL1        0.0744
      4 C         139.0466  137.6408  164.5468 C.ar    1  UNL1        0.0230
      5 C         139.9354  138.2705  163.5154 C.ar    1  UNL1        0.0828
      6 N         140.4388  137.4557  162.3610 N.ar    1  UNL1       -0.2425
      7 C         141.3275  138.0854  161.3297 C.ar    1  UNL1        0.1139
      8 C         141.7129  139.5298  161.4528 C.ar    1  UNL1        0.0750
      9 C         141.2095  140.3446  162.6072 C.ar    1  UNL1        0.0197
     10 C         140.3207  139.7149  163.6385 C.ar    1  UNL1        0.0366
     11 N         142.6016  140.1595  160.4214 N.pl3   1  UNL1       -0.2597
     12 C         142.7439  139.5285  159.0681 C.2     1  UNL1        0.0859
     13 C         143.6327  140.1582  158.0367 C.2     1  UNL1        0.0822
     14 N         144.3792  141.4188  158.3588 N.pl3   1  UNL1       -0.2801
     15 C         144.2368  142.0497  159.7122 C.2     1  UNL1        0.0822
     16 C         143.3481  141.4200  160.7435 C.2     1  UNL1        0.0859
     17 C         145.2679  142.0485  157.3275 C.3     1  UNL1        0.1312
     18 C         146.5433  142.7185  157.7449 C.3     1  UNL1        0.2038
     19 O         147.8188  143.3886  158.1624 O.3     1  UNL1       -0.2185
     20 C         137.6544  137.8259  166.7326 C.3     1  UNL1        0.4187
     21 F         136.7657  137.1962  167.7639 F       1  UNL1       -0.1659
     22 F         137.5260  139.1480  167.4292 F       1  UNL1       -0.1659
     23 F         137.7828  136.5037  166.0360 F       1  UNL1       -0.1659
     24 C         140.9852  142.4427  166.1069 C.2     1  UNL1        0.0990
     25 N         140.2026  141.9741  164.9161 N.2     1  UNL1       -0.2438
     26 C         141.3825  141.4668  167.1746 C.ar    1  UNL1        0.0252
     27 C         142.5059  140.5035  166.9298 C.ar    1  UNL1        0.0020
     28 C         142.9032  139.5277  167.9974 C.ar    1  UNL1        0.0064
     29 C         142.1771  139.5152  169.3099 C.ar    1  UNL1        0.0753
     30 C         141.0537  140.4785  169.5547 C.ar    1  UNL1        0.2901
     31 C         140.6564  141.4543  168.4871 C.ar    1  UNL1        0.0768
     32 N         140.3276  140.4660  170.8672 N.pl3   1  UNL1        0.0809
     33 O         139.2983  139.4107  171.1449 O.2     1  UNL1        0.0415
     34 O         140.6307  141.5087  171.9020 O.co2   1  UNL1       -0.5760
@<TRIPOS>UNITY_ATOM_ATTR
32 1
charge 1
34 1
charge -1
@<TRIPOS>BOND
     1    24    25    2
     2    25     1    1
     3     1     2   ar
     4     2     3   ar
     5     3    20    1
     6    20    21    1
     7    20    22    1
     8    20    23    1
     9     3     4   ar
    10     4     5   ar
    11     5     6   ar
    12     6     7   ar
    13     7     8   ar
    14     8    11    1
    15    11    12    1
    16    12    13    2
    17    13    14    1
    18    14    17    1
    19    17    18    1
    20    18    19    1
    21    14    15    1
    22    15    16    2
    23     8     9   ar
    24     9    10   ar
    25    24    26    1
    26    26    27   ar
    27    27    28   ar
    28    28    29   ar
    29    29    30   ar
    30    30    32    1
    31    32    33    2
    32    32    34    1
    33    30    31   ar
    34    10     1   ar
    35    31    26   ar
    36    10     5   ar
    37    16    11    1
@<TRIPOS>MOLECULE
*****
 34 37 0 0 0
SMALL
GASTEIGER

@<TRIPOS>ATOM
      1 C         140.7542  142.6393  164.8492 C.ar    1  UNL1        0.0827
      2 C         140.5282  142.7829  166.3251 C.ar    1  UNL1        0.0230
      3 C         141.6146  142.4105  167.2899 C.ar    1  UNL1        0.0744
      4 C         142.9271  141.8945  166.7789 C.ar    1  UNL1        0.0230
      5 C         143.1531  141.7508  165.3030 C.ar    1  UNL1        0.0828
      6 N         144.4655  141.2348  164.7920 N.ar    1  UNL1       -0.2425
      7 C         144.6915  141.0912  163.3161 C.ar    1  UNL1        0.1139
      8 C         143.6051  141.4636  162.3512 C.ar    1  UNL1        0.0750
      9 C         142.2926  141.9796  162.8622 C.ar    1  UNL1        0.0197
     10 C         142.0667  142.1232  164.3381 C.ar    1  UNL1        0.0366
     11 N         143.8311  141.3199  160.8753 N.pl3   1  UNL1       -0.2597
     12 C         143.5245  140.0200  160.1926 C.2     1  UNL1        0.0859
     13 C         143.7505  139.8764  158.7166 C.2     1  UNL1        0.0822
     14 N         144.2832  141.0327  157.9235 N.pl3   1  UNL1       -0.2801
     15 C         144.5899  142.3327  158.6062 C.2     1  UNL1        0.0822
     16 C         144.3638  142.4763  160.0821 C.2     1  UNL1        0.0859
     17 C         144.5093  140.8891  156.4476 C.3     1  UNL1        0.1312
     18 C         144.8523  139.5487  155.8683 C.3     1  UNL1        0.2038
     19 O         145.1954  138.2082  155.2891 O.3     1  UNL1       -0.2185
     20 C         141.3886  142.5541  168.7659 C.3     1  UNL1        0.4187
     21 F         141.1625  142.6978  170.2418 F       1  UNL1       -0.1659
     22 F         142.8404  142.8793  168.9566 F       1  UNL1       -0.1659
     23 F         139.9368  142.2289  168.5751 F       1  UNL1       -0.1659
     24 C         138.6568  141.9875  163.4614 C.2     1  UNL1        0.0990
     25 N         139.6677  143.0117  163.8844 N.2     1  UNL1       -0.2438
     26 C         138.7323  140.5908  164.0033 C.ar    1  UNL1        0.0252
     27 C         139.3036  139.4892  163.1606 C.ar    1  UNL1        0.0020
     28 C         139.3790  138.0926  163.7024 C.ar    1  UNL1        0.0064
     29 C         138.8832  137.7975  165.0869 C.ar    1  UNL1        0.0753
     30 C         138.3119  138.8990  165.9297 C.ar    1  UNL1        0.2901
     31 C         138.2364  140.2957  165.3878 C.ar    1  UNL1        0.0768
     32 N         137.8161  138.6039  167.3143 N.pl3   1  UNL1        0.0809
     33 O         136.7471  137.5728  167.5242 O.2     1  UNL1        0.0415
     34 O         138.3893  139.3397  168.4889 O.co2   1  UNL1       -0.5760
@<TRIPOS>UNITY_ATOM_ATTR
32 1
charge 1
34 1
charge -1
@<TRIPOS>BOND
     1    24    25    2
     2    25     1    1
     3     1     2   ar
     4     2     3   ar
     5     3    20    1
     6    20    21    1
     7    20    22    1
     8    20    23    1
     9     3     4   ar
    10     4     5   ar
    11     5     6   ar
    12     6     7   ar
    13     7     8   ar
    14     8    11    1
    15    11    12    1
    16    12    13    2
    17    13    14    1
    18    14    17    1
    19    17    18    1
    20    18    19    1
    21    14    15    1
    22    15    16    2
    23     8     9   ar
    24     9    10   ar
    25    24    26    1
    26    26    27   ar
    27    27    28   ar
    28    28    29   ar
    29    29    30   ar
    30    30    32    1
    31    32    33    2
    32    32    34    1
    33    30    31   ar
    34    10     1   ar
    35    31    26   ar
    36    10     5   ar
    37    16    11    1
@<TRIPOS>MOLECULE
*****
 34 37 0 0 0
SMALL
GASTEIGER

@<TRIPOS>ATOM
      1 C         140.5090  142.8096  165.3037 C.ar    1  UNL1        0.0827
      2 C         140.8731  142.3047  166.6684 C.ar    1  UNL1        0.0230
      3 C         142.2898  141.9154  166.9707 C.ar    1  UNL1        0.0744
      4 C         143.3424  142.0308  165.9082 C.ar    1  UNL1        0.0230
      5 C         142.9782  142.5357  164.5435 C.ar    1  UNL1        0.0828
      6 N         144.0307  142.6512  163.4810 N.ar    1  UNL1       -0.2425
      7 C         143.6666  143.1560  162.1163 C.ar    1  UNL1        0.1139
      8 C         142.2499  143.5454  161.8140 C.ar    1  UNL1        0.0750
      9 C         141.1973  143.4299  162.8765 C.ar    1  UNL1        0.0197
     10 C         141.5615  142.9251  164.2412 C.ar    1  UNL1        0.0366
     11 N         141.8857  144.0503  160.4493 N.pl3   1  UNL1       -0.2597
     12 C         140.7476  145.0133  160.2849 C.2     1  UNL1        0.0859
     13 C         140.3834  145.5182  158.9201 C.2     1  UNL1        0.0822
     14 N         141.1575  145.0599  157.7197 N.pl3   1  UNL1       -0.2801
     15 C         142.2957  144.0968  157.8842 C.2     1  UNL1        0.0822
     16 C         142.6598  143.5920  159.2489 C.2     1  UNL1        0.0859
     17 C         140.7934  145.5648  156.3550 C.3     1  UNL1        0.1312
     18 C         139.8140  146.6914  156.2087 C.3     1  UNL1        0.2038
     19 O         138.8346  147.8181  156.0625 O.3     1  UNL1       -0.2185
     20 C         142.6540  141.4105  168.3355 C.3     1  UNL1        0.4187
     21 F         143.0181  140.9056  169.7002 F       1  UNL1       -0.1659
     22 F         143.6882  142.4898  168.4588 F       1  UNL1       -0.1659
     23 F         141.6197  140.3312  168.2121 F       1  UNL1       -0.1659
     24 C         138.0792  142.1440  164.6688 C.2     1  UNL1        0.0990
     25 N         139.0923  143.1990  165.0014 N.2     1  UNL1       -0.2438
     26 C         138.4828  140.6996  164.6383 C.ar    1  UNL1        0.0252
     27 C         138.3735  139.8640  165.8793 C.ar    1  UNL1        0.0020
     28 C         138.7770  138.4197  165.8489 C.ar    1  UNL1        0.0064
     29 C         139.2899  137.8109  164.5776 C.ar    1  UNL1        0.0753
     30 C         139.3993  138.6465  163.3367 C.ar    1  UNL1        0.2901
     31 C         138.9957  140.0908  163.3670 C.ar    1  UNL1        0.0768
     32 N         139.9122  138.0376  162.0653 N.pl3   1  UNL1        0.0809
     33 O         139.1190  138.1663  160.7987 O.2     1  UNL1        0.0415
     34 O         141.2184  137.3001  162.0606 O.co2   1  UNL1       -0.5760
@<TRIPOS>UNITY_ATOM_ATTR
32 1
charge 1
34 1
charge -1
@<TRIPOS>BOND
     1    24    25    2
     2    25     1    1
     3     1     2   ar
     4     2     3   ar
     5     3    20    1
     6    20    21    1
     7    20    22    1
     8    20    23    1
     9     3     4   ar
    10     4     5   ar
    11     5     6   ar
    12     6     7   ar
    13     7     8   ar
    14     8    11    1
    15    11    12    1
    16    12    13    2
    17    13    14    1
    18    14    17    1
    19    17    18    1
    20    18    19    1
    21    14    15    1
    22    15    16    2
    23     8     9   ar
    24     9    10   ar
    25    24    26    1
    26    26    27   ar
    27    27    28   ar
    28    28    29   ar
    29    29    30   ar
    30    30    32    1
    31    32    33    2
    32    32    34    1
    33    30    31   ar
    34    10     1   ar
    35    31    26   ar
    36    10     5   ar
    37    16    11    1
@<TRIPOS>MOLECULE
*****
 34 37 0 0 0
SMALL
GASTEIGER

@<TRIPOS>ATOM
      1 C         138.3758  141.9027  163.8281 C.ar    1  UNL1        0.0827
      2 C         138.2031  140.8442  164.8767 C.ar    1  UNL1        0.0230
      3 C         138.5008  139.4105  164.5512 C.ar    1  UNL1        0.0744
      4 C         138.9711  139.0353  163.1772 C.ar    1  UNL1        0.0230
      5 C         139.1439  140.0939  162.1286 C.ar    1  UNL1        0.0828
      6 N         139.6142  139.7188  160.7545 N.ar    1  UNL1       -0.2425
      7 C         139.7869  140.7774  159.7060 C.ar    1  UNL1        0.1139
      8 C         139.4893  142.2111  160.0314 C.ar    1  UNL1        0.0750
      9 C         139.0189  142.5862  161.4055 C.ar    1  UNL1        0.0197
     10 C         138.8462  141.5276  162.4540 C.ar    1  UNL1        0.0366
     11 N         139.6620  143.2697  158.9828 N.pl3   1  UNL1       -0.2597
     12 C         140.3898  144.5394  159.3115 C.2     1  UNL1        0.0859
     13 C         140.5626  145.5980  158.2629 C.2     1  UNL1        0.0822
     14 N         140.0074  145.3868  156.8855 N.pl3   1  UNL1       -0.2801
     15 C         139.2796  144.1170  156.5567 C.2     1  UNL1        0.0822
     16 C         139.1069  143.0585  157.6054 C.2     1  UNL1        0.0859
     17 C         140.1801  146.4453  155.8368 C.3     1  UNL1        0.1312
     18 C         139.3132  147.6692  155.8568 C.3     1  UNL1        0.2038
     19 O         138.4463  148.8932  155.8767 O.3     1  UNL1       -0.2185
     20 C         138.3280  138.3519  165.5999 C.3     1  UNL1        0.4187
     21 F         138.1553  137.2933  166.6485 F       1  UNL1       -0.1659
     22 F         137.5367  139.3114  166.4383 F       1  UNL1       -0.1659
     23 F         139.1194  137.3923  164.7615 F       1  UNL1       -0.1659
     24 C         139.1464  144.2091  164.7428 C.2     1  UNL1        0.0990
     25 N         138.0782  143.3364  164.1536 N.2     1  UNL1       -0.2438
     26 C         140.5124  143.6481  165.0066 C.ar    1  UNL1        0.0252
     27 C         140.7654  142.8413  166.2455 C.ar    1  UNL1        0.0020
     28 C         142.1313  142.2803  166.5093 C.ar    1  UNL1        0.0064
     29 C         143.2442  142.5262  165.5342 C.ar    1  UNL1        0.0753
     30 C         142.9912  143.3331  164.2953 C.ar    1  UNL1        0.2901
     31 C         141.6253  143.8940  164.0315 C.ar    1  UNL1        0.0768
     32 N         144.1042  143.5789  163.3201 N.pl3   1  UNL1        0.0809
     33 O         145.1208  142.5079  163.0567 O.2     1  UNL1        0.0415
     34 O         144.2005  144.8958  162.6084 O.co2   1  UNL1       -0.5760
@<TRIPOS>UNITY_ATOM_ATTR
32 1
charge 1
34 1
charge -1
@<TRIPOS>BOND
     1    24    25    2
     2    25     1    1
     3     1     2   ar
     4     2     3   ar
     5     3    20    1
     6    20    21    1
     7    20    22    1
     8    20    23    1
     9     3     4   ar
    10     4     5   ar
    11     5     6   ar
    12     6     7   ar
    13     7     8   ar
    14     8    11    1
    15    11    12    1
    16    12    13    2
    17    13    14    1
    18    14    17    1
    19    17    18    1
    20    18    19    1
    21    14    15    1
    22    15    16    2
    23     8     9   ar
    24     9    10   ar
    25    24    26    1
    26    26    27   ar
    27    27    28   ar
    28    28    29   ar
    29    29    30   ar
    30    30    32    1
    31    32    33    2
    32    32    34    1
    33    30    31   ar
    34    10     1   ar
    35    31    26   ar
    36    10     5   ar
    37    16    11    1
@<TRIPOS>MOLECULE
*****
 34 37 0 0 0
SMALL
GASTEIGER

@<TRIPOS>ATOM
      1 C         141.2981  140.2900  165.7833 C.ar    1  UNL1        0.0827
      2 C         140.7236  140.4615  167.1582 C.ar    1  UNL1        0.0230
      3 C         139.4090  139.8285  167.5061 C.ar    1  UNL1        0.0744
      4 C         138.6689  139.0238  166.4791 C.ar    1  UNL1        0.0230
      5 C         139.2435  138.8522  165.1041 C.ar    1  UNL1        0.0828
      6 N         138.5034  138.0475  164.0771 N.ar    1  UNL1       -0.2425
      7 C         139.0779  137.8759  162.7022 C.ar    1  UNL1        0.1139
      8 C         140.3925  138.5090  162.3543 C.ar    1  UNL1        0.0750
      9 C         141.1326  139.3137  163.3813 C.ar    1  UNL1        0.0197
     10 C         140.5581  139.4853  164.7562 C.ar    1  UNL1        0.0366
     11 N         140.9671  138.3374  160.9793 N.pl3   1  UNL1       -0.2597
     12 C         140.1085  138.5756  159.7726 C.2     1  UNL1        0.0859
     13 C         140.6830  138.4040  158.3976 C.2     1  UNL1        0.0822
     14 N         142.1161  137.9942  158.2294 N.pl3   1  UNL1       -0.2801
     15 C         142.9747  137.7560  159.4361 C.2     1  UNL1        0.0822
     16 C         142.4001  137.9276  160.8110 C.2     1  UNL1        0.0859
     17 C         142.6907  137.8226  156.8545 C.3     1  UNL1        0.1312
     18 C         143.2845  136.5063  156.4488 C.3     1  UNL1        0.2038
     19 O         143.8785  135.1899  156.0431 O.3     1  UNL1       -0.2185
     20 C         138.8345  140.0001  168.8811 C.3     1  UNL1        0.4187
     21 F         138.2600  140.1716  170.2560 F       1  UNL1       -0.1659
     22 F         139.9843  140.8896  169.2506 F       1  UNL1       -0.1659
     23 F         137.6846  139.1105  168.5116 F       1  UNL1       -0.1659
     24 C         142.6496  142.3092  164.8636 C.2     1  UNL1        0.0990
     25 N         142.6127  140.9230  165.4354 N.2     1  UNL1       -0.2438
     26 C         141.3718  143.0625  164.6396 C.ar    1  UNL1        0.0252
     27 C         140.4606  143.3536  165.7950 C.ar    1  UNL1        0.0020
     28 C         139.1829  144.1068  165.5711 C.ar    1  UNL1        0.0064
     29 C         138.8164  144.5688  164.1919 C.ar    1  UNL1        0.0753
     30 C         139.7277  144.2776  163.0365 C.ar    1  UNL1        0.2901
     31 C         141.0054  143.5244  163.2604 C.ar    1  UNL1        0.0768
     32 N         139.3612  144.7396  161.6573 N.pl3   1  UNL1        0.0809
     33 O         139.3444  146.2049  161.3369 O.2     1  UNL1        0.0415
     34 O         139.0115  143.7363  160.5985 O.co2   1  UNL1       -0.5760
@<TRIPOS>UNITY_ATOM_ATTR
32 1
charge 1
34 1
charge -1
@<TRIPOS>BOND
     1    24    25    2
     2    25     1    1
     3     1     2   ar
     4     2     3   ar
     5     3    20    1
     6    20    21    1
     7    20    22    1
     8    20    23    1
     9     3     4   ar
    10     4     5   ar
    11     5     6   ar
    12     6     7   ar
    13     7     8   ar
    14     8    11    1
    15    11    12    1
    16    12    13    2
    17    13    14    1
    18    14    17    1
    19    17    18    1
    20    18    19    1
    21    14    15    1
    22    15    16    2
    23     8     9   ar
    24     9    10   ar
    25    24    26    1
    26    26    27   ar
    27    27    28   ar
    28    28    29   ar
    29    29    30   ar
    30    30    32    1
    31    32    33    2
    32    32    34    1
    33    30    31   ar
    34    10     1   ar
    35    31    26   ar
    36    10     5   ar
    37    16    11    1
@<TRIPOS>MOLECULE
*****
 34 37 0 0 0
SMALL
GASTEIGER

@<TRIPOS>ATOM
      1 C         139.6132  140.5074  165.1705 C.ar    1  UNL1        0.0827
      2 C         139.7550  140.3700  166.6575 C.ar    1  UNL1        0.0230
      3 C         140.0845  141.5709  167.4936 C.ar    1  UNL1        0.0744
      4 C         140.2722  142.9093  166.8428 C.ar    1  UNL1        0.0230
      5 C         140.1304  143.0467  165.3558 C.ar    1  UNL1        0.0828
      6 N         140.3181  144.3850  164.7050 N.ar    1  UNL1       -0.2425
      7 C         140.1762  144.5224  163.2181 C.ar    1  UNL1        0.1139
      8 C         139.8467  143.3215  162.3820 C.ar    1  UNL1        0.0750
      9 C         139.6590  141.9831  163.0328 C.ar    1  UNL1        0.0197
     10 C         139.8009  141.8457  164.5197 C.ar    1  UNL1        0.0366
     11 N         139.7049  143.4589  160.8950 N.pl3   1  UNL1       -0.2597
     12 C         140.4725  144.5196  160.1632 C.2     1  UNL1        0.0859
     13 C         140.3307  144.6570  158.6762 C.2     1  UNL1        0.0822
     14 N         139.4212  143.7337  157.9211 N.pl3   1  UNL1       -0.2801
     15 C         138.6535  142.6729  158.6529 C.2     1  UNL1        0.0822
     16 C         138.7954  142.5355  160.1398 C.2     1  UNL1        0.0859
     17 C         139.2793  143.8711  156.4342 C.3     1  UNL1        0.1312
     18 C         137.9152  143.9349  155.8137 C.3     1  UNL1        0.2038
     19 O         136.5510  143.9987  155.1931 O.3     1  UNL1       -0.2185
     20 C         140.2264  141.4335  168.9806 C.3     1  UNL1        0.4187
     21 F         140.3682  141.2960  170.4675 F       1  UNL1       -0.1659
     22 F         140.1294  142.9231  169.1275 F       1  UNL1       -0.1659
     23 F         140.3233  139.9439  168.8336 F       1  UNL1       -0.1659
     24 C         140.3851  138.4428  163.7953 C.2     1  UNL1        0.0990
     25 N         139.2836  139.3064  164.3344 N.2     1  UNL1       -0.2438
     26 C         141.8163  138.7801  164.0922 C.ar    1  UNL1        0.0252
     27 C         142.4716  138.2447  165.3307 C.ar    1  UNL1        0.0020
     28 C         143.9027  138.5819  165.6277 C.ar    1  UNL1        0.0064
     29 C         144.6784  139.4546  164.6862 C.ar    1  UNL1        0.0753
     30 C         144.0231  139.9900  163.4476 C.ar    1  UNL1        0.2901
     31 C         142.5921  139.6527  163.1507 C.ar    1  UNL1        0.0768
     32 N         144.7990  140.8627  162.5061 N.pl3   1  UNL1        0.0809
     33 O         144.3686  140.9903  161.0748 O.2     1  UNL1        0.0415
     34 O         146.0053  141.6078  162.9957 O.co2   1  UNL1       -0.5760
@<TRIPOS>UNITY_ATOM_ATTR
32 1
charge 1
34 1
charge -1
@<TRIPOS>BOND
     1    24    25    2
     2    25     1    1
     3     1     2   ar
     4     2     3   ar
     5     3    20    1
     6    20    21    1
     7    20    22    1
     8    20    23    1
     9     3     4   ar
    10     4     5   ar
    11     5     6   ar
    12     6     7   ar
    13     7     8   ar
    14     8    11    1
    15    11    12    1
    16    12    13    2
    17    13    14    1
    18    14    17    1
    19    17    18    1
    20    18    19    1
    21    14    15    1
    22    15    16    2
    23     8     9   ar
    24     9    10   ar
    25    24    26    1
    26    26    27   ar
    27    27    28   ar
    28    28    29   ar
    29    29    30   ar
    30    30    32    1
    31    32    33    2
    32    32    34    1
    33    30    31   ar
    34    10     1   ar
    35    31    26   ar
    36    10     5   ar
    37    16    11    1
@<TRIPOS>MOLECULE
*****
 34 37 0 0 0
SMALL
GASTEIGER

@<TRIPOS>ATOM
      1 C         140.7238  141.3169  163.1608 C.ar    1  UNL1        0.0827
      2 C         140.1087  142.3170  164.0942 C.ar    1  UNL1        0.0230
      3 C         138.8363  143.0142  163.7138 C.ar    1  UNL1        0.0744
      4 C         138.1789  142.7113  162.4001 C.ar    1  UNL1        0.0230
      5 C         138.7940  141.7111  161.4666 C.ar    1  UNL1        0.0828
      6 N         138.1367  141.4082  160.1528 N.ar    1  UNL1       -0.2425
      7 C         138.7518  140.4081  159.2194 C.ar    1  UNL1        0.1139
      8 C         140.0243  139.7108  159.5998 C.ar    1  UNL1        0.0750
      9 C         140.6816  140.0137  160.9136 C.ar    1  UNL1        0.0197
     10 C         140.0665  141.0139  161.8470 C.ar    1  UNL1        0.0366
     11 N         140.6394  138.7106  158.6663 N.pl3   1  UNL1       -0.2597
     12 C         142.0639  138.2823  158.8588 C.2     1  UNL1        0.0859
     13 C         142.6790  137.2821  157.9253 C.2     1  UNL1        0.0822
     14 N         141.8695  136.7103  156.7993 N.pl3   1  UNL1       -0.2801
     15 C         140.4449  137.1387  156.6069 C.2     1  UNL1        0.0822
     16 C         139.8298  138.1389  157.5403 C.2     1  UNL1        0.0859
     17 C         142.4846  135.7102  155.8659 C.3     1  UNL1        0.1312
     18 C         142.2986  134.2421  156.1112 C.3     1  UNL1        0.2038
     19 O         142.1127  132.7740  156.3566 O.3     1  UNL1       -0.2185
     20 C         138.2211  144.0144  164.6473 C.3     1  UNL1        0.4187
     21 F         137.6061  145.0146  165.5808 F       1  UNL1       -0.1659
     22 F         137.3068  144.4752  163.5512 F       1  UNL1       -0.1659
     23 F         139.1355  143.5537  165.7435 F       1  UNL1       -0.1659
     24 C         142.0085  139.6549  164.6897 C.2     1  UNL1        0.0990
     25 N         141.9963  140.6196  163.5412 N.2     1  UNL1       -0.2438
     26 C         140.7481  139.3873  165.4579 C.ar    1  UNL1        0.0252
     27 C         139.6719  138.5315  164.8585 C.ar    1  UNL1        0.0020
     28 C         138.4116  138.2639  165.6266 C.ar    1  UNL1        0.0064
     29 C         138.2275  138.8522  166.9940 C.ar    1  UNL1        0.0753
     30 C         139.3037  139.7080  167.5934 C.ar    1  UNL1        0.2901
     31 C         140.5640  139.9756  166.8253 C.ar    1  UNL1        0.0768
     32 N         139.1196  140.2963  168.9610 N.pl3   1  UNL1        0.0809
     33 O         139.8696  141.5352  169.3516 O.2     1  UNL1        0.0415
     34 O         138.1856  139.6456  169.9378 O.co2   1  UNL1       -0.5760
@<TRIPOS>UNITY_ATOM_ATTR
32 1
charge 1
34 1
charge -1
@<TRIPOS>BOND
     1    24    25    2
     2    25     1    1
     3     1     2   ar
     4     2     3   ar
     5     3    20    1
     6    20    21    1
     7    20    22    1
     8    20    23    1
     9     3     4   ar
    10     4     5   ar
    11     5     6   ar
    12     6     7   ar
    13     7     8   ar
    14     8    11    1
    15    11    12    1
    16    12    13    2
    17    13    14    1
    18    14    17    1
    19    17    18    1
    20    18    19    1
    21    14    15    1
    22    15    16    2
    23     8     9   ar
    24     9    10   ar
    25    24    26    1
    26    26    27   ar
    27    27    28   ar
    28    28    29   ar
    29    29    30   ar
    30    30    32    1
    31    32    33    2
    32    32    34    1
    33    30    31   ar
    34    10     1   ar
    35    31    26   ar
    36    10     5   ar
    37    16    11    1
@<TRIPOS>MOLECULE
*****
 34 37 0 0 0
SMALL
GASTEIGER

@<TRIPOS>ATOM
      1 C         139.5277  140.6031  164.8785 C.ar    1  UNL1        0.0827
      2 C         139.5990  140.3334  166.3523 C.ar    1  UNL1        0.0230
      3 C         139.9659  141.4369  167.2997 C.ar    1  UNL1        0.0744
      4 C         140.2616  142.8101  166.7734 C.ar    1  UNL1        0.0230
      5 C         140.1903  143.0798  165.2995 C.ar    1  UNL1        0.0828
      6 N         140.4859  144.4529  164.7732 N.ar    1  UNL1       -0.2425
      7 C         140.4146  144.7225  163.2993 C.ar    1  UNL1        0.1139
      8 C         140.0477  143.6190  162.3519 C.ar    1  UNL1        0.0750
      9 C         139.7521  142.2459  162.8782 C.ar    1  UNL1        0.0197
     10 C         139.8234  141.9763  164.3520 C.ar    1  UNL1        0.0366
     11 N         139.9764  143.8887  160.8780 N.pl3   1  UNL1       -0.2597
     12 C         139.4309  142.8442  159.9499 C.2     1  UNL1        0.0859
     13 C         139.3596  143.1139  158.4760 C.2     1  UNL1        0.0822
     14 N         139.8338  144.4282  157.9303 N.pl3   1  UNL1       -0.2801
     15 C         140.3793  145.4727  158.8585 C.2     1  UNL1        0.0822
     16 C         140.4506  145.2030  160.3323 C.2     1  UNL1        0.0859
     17 C         139.7626  144.6979  156.4565 C.3     1  UNL1        0.1312
     18 C         139.6709  146.1089  155.9559 C.3     1  UNL1        0.2038
     19 O         139.5793  147.5200  155.4553 O.3     1  UNL1       -0.2185
     20 C         140.0372  141.1672  168.7736 C.3     1  UNL1        0.4187
     21 F         140.1085  140.8975  170.2474 F       1  UNL1       -0.1659
     22 F         140.0422  142.6427  169.0434 F       1  UNL1       -0.1659
     23 F         140.0322  139.6917  168.5038 F       1  UNL1       -0.1659
     24 C         140.2163  138.5581  163.4314 C.2     1  UNL1        0.0990
     25 N         139.1608  139.4996  163.9310 N.2     1  UNL1       -0.2438
     26 C         141.6387  138.7201  163.8793 C.ar    1  UNL1        0.0252
     27 C         142.6487  139.3394  162.9594 C.ar    1  UNL1        0.0020
     28 C         144.0711  139.5014  163.4072 C.ar    1  UNL1        0.0064
     29 C         144.4834  139.0441  164.7749 C.ar    1  UNL1        0.0753
     30 C         143.4734  138.4247  165.6949 C.ar    1  UNL1        0.2901
     31 C         142.0510  138.2628  165.2471 C.ar    1  UNL1        0.0768
     32 N         143.8858  137.9674  167.0627 N.pl3   1  UNL1        0.0809
     33 O         143.2827  138.6038  168.2798 O.2     1  UNL1        0.0415
     34 O         144.9012  136.8737  167.2134 O.co2   1  UNL1       -0.5760
@<TRIPOS>UNITY_ATOM_ATTR
32 1
charge 1
34 1
charge -1
@<TRIPOS>BOND
     1    24    25    2
     2    25     1    1
     3     1     2   ar
     4     2     3   ar
     5     3    20    1
     6    20    21    1
     7    20    22    1
     8    20    23    1
     9     3     4   ar
    10     4     5   ar
    11     5     6   ar
    12     6     7   ar
    13     7     8   ar
    14     8    11    1
    15    11    12    1
    16    12    13    2
    17    13    14    1
    18    14    17    1
    19    17    18    1
    20    18    19    1
    21    14    15    1
    22    15    16    2
    23     8     9   ar
    24     9    10   ar
    25    24    26    1
    26    26    27   ar
    27    27    28   ar
    28    28    29   ar
    29    29    30   ar
    30    30    32    1
    31    32    33    2
    32    32    34    1
    33    30    31   ar
    34    10     1   ar
    35    31    26   ar
    36    10     5   ar
    37    16    11    1
@<TRIPOS>MOLECULE
*****
 34 37 0 0 0
SMALL
GASTEIGER

@<TRIPOS>ATOM
      1 C         140.4134  142.5696  165.1412 C.ar    1  UNL1        0.0827
      2 C         140.9009  142.1877  166.5074 C.ar    1  UNL1        0.0230
      3 C         142.3304  141.7794  166.7066 C.ar    1  UNL1        0.0744
      4 C         143.2725  141.7529  165.5397 C.ar    1  UNL1        0.0230
      5 C         142.7850  142.1347  164.1734 C.ar    1  UNL1        0.0828
      6 N         143.7270  142.1082  163.0064 N.ar    1  UNL1       -0.2425
      7 C         143.2395  142.4900  161.6403 C.ar    1  UNL1        0.1139
      8 C         141.8100  142.8984  161.4410 C.ar    1  UNL1        0.0750
      9 C         140.8680  142.9249  162.6080 C.ar    1  UNL1        0.0197
     10 C         141.3555  142.5431  163.9741 C.ar    1  UNL1        0.0366
     11 N         141.3225  143.2803  160.0747 N.pl3   1  UNL1       -0.2597
     12 C         142.2573  143.9334  159.1003 C.2     1  UNL1        0.0859
     13 C         141.7699  144.3153  157.7341 C.2     1  UNL1        0.0822
     14 N         140.3476  144.0439  157.3423 N.pl3   1  UNL1       -0.2801
     15 C         139.4128  143.3908  158.3168 C.2     1  UNL1        0.0822
     16 C         139.9002  143.0090  159.6830 C.2     1  UNL1        0.0859
     17 C         139.8601  144.4258  155.9761 C.3     1  UNL1        0.1312
     18 C         138.3907  144.4184  155.6750 C.3     1  UNL1        0.2038
     19 O         136.9212  144.4110  155.3738 O.3     1  UNL1       -0.2185
     20 C         142.8179  141.3975  168.0729 C.3     1  UNL1        0.4187
     21 F         143.3054  141.0157  169.4391 F       1  UNL1       -0.1659
     22 F         142.0871  140.0917  167.9687 F       1  UNL1       -0.1659
     23 F         143.5486  142.7033  168.1771 F       1  UNL1       -0.1659
     24 C         137.9318  141.9351  164.7063 C.2     1  UNL1        0.0990
     25 N         138.9839  142.9779  164.9420 N.2     1  UNL1       -0.2438
     26 C         138.3093  140.4837  164.6699 C.ar    1  UNL1        0.0252
     27 C         138.1218  139.6292  165.8884 C.ar    1  UNL1        0.0020
     28 C         138.4992  138.1780  165.8520 C.ar    1  UNL1        0.0064
     29 C         139.0641  137.5812  164.5972 C.ar    1  UNL1        0.0753
     30 C         139.2517  138.4357  163.3787 C.ar    1  UNL1        0.2901
     31 C         138.8742  139.8870  163.4151 C.ar    1  UNL1        0.0768
     32 N         139.8166  137.8389  162.1238 N.pl3   1  UNL1        0.0809
     33 O         141.1585  137.1690  162.1500 O.2     1  UNL1        0.0415
     34 O         139.0398  137.9120  160.8428 O.co2   1  UNL1       -0.5760
@<TRIPOS>UNITY_ATOM_ATTR
32 1
charge 1
34 1
charge -1
@<TRIPOS>BOND
     1    24    25    2
     2    25     1    1
     3     1     2   ar
     4     2     3   ar
     5     3    20    1
     6    20    21    1
     7    20    22    1
     8    20    23    1
     9     3     4   ar
    10     4     5   ar
    11     5     6   ar
    12     6     7   ar
    13     7     8   ar
    14     8    11    1
    15    11    12    1
    16    12    13    2
    17    13    14    1
    18    14    17    1
    19    17    18    1
    20    18    19    1
    21    14    15    1
    22    15    16    2
    23     8     9   ar
    24     9    10   ar
    25    24    26    1
    26    26    27   ar
    27    27    28   ar
    28    28    29   ar
    29    29    30   ar
    30    30    32    1
    31    32    33    2
    32    32    34    1
    33    30    31   ar
    34    10     1   ar
    35    31    26   ar
    36    10     5   ar
    37    16    11    1
