@<TRIPOS>MOLECULE
*****
 38 42 0 0 0
SMALL
GASTEIGER

@<TRIPOS>ATOM
      1 C         140.8902  140.9098  163.0083 C.ar    1  UNL1        0.1315
      2 N         141.8716  140.7260  161.8889 N.ar    1  UNL1       -0.2120
      3 C         141.9856  141.7652  160.8133 C.ar    1  UNL1        0.1666
      4 N         141.1183  142.9882  160.8570 N.ar    1  UNL1       -0.2264
      5 C         140.1368  143.1720  161.9764 C.ar    1  UNL1        0.0856
      6 C         139.2695  144.3950  162.0201 C.ar    1  UNL1        0.0192
      7 C         138.2881  144.5788  163.1395 C.ar    1  UNL1        0.0015
      8 C         138.1741  143.5396  164.2151 C.ar    1  UNL1        0.0002
      9 C         139.0414  142.3166  164.1714 C.ar    1  UNL1        0.0041
     10 C         140.0228  142.1328  163.0520 C.ar    1  UNL1        0.0491
     11 C         142.9671  141.5814  159.6938 C.ar    1  UNL1        0.0741
     12 C         143.1846  140.2199  159.1031 C.ar    1  UNL1        0.1052
     13 N         144.1660  140.0361  157.9838 N.ar    1  UNL1       -0.2223
     14 C         144.9299  141.2138  157.4551 C.ar    1  UNL1        0.1989
     15 N         144.7124  142.5753  158.0459 N.ar    1  UNL1       -0.2223
     16 C         143.7310  142.7591  159.1652 C.ar    1  UNL1        0.1052
     17 C         138.9273  141.2774  165.2471 C.ar    1  UNL1        0.0001
     18 C         139.6779  141.4453  166.5348 C.ar    1  UNL1        0.0000
     19 C         139.5639  140.4061  167.6105 C.ar    1  UNL1        0.0000
     20 C         138.6992  139.1989  167.3984 C.ar    1  UNL1        0.0000
     21 C         137.9487  139.0309  166.1106 C.ar    1  UNL1        0.0000
     22 C         138.0627  140.0702  165.0350 C.ar    1  UNL1        0.0000
     23 N         140.7761  139.8705  164.0839 N.pl3   1  UNL1       -0.3177
     24 H         140.0278  139.9035  164.7228 H       1  UNL1        0.1482
     25 C         141.8022  138.7812  164.1861 C.3     1  UNL1        0.0929
     26 C         143.0608  139.0075  164.9702 C.3     1  UNL1        0.0475
     27 C         142.9868  141.6063  168.6432 C.ar    1  UNL1        0.1217
     28 C         142.7923  140.1243  168.7690 C.ar    1  UNL1        0.0196
     29 C         142.8170  139.2581  167.5447 C.ar    1  UNL1       -0.0028
     30 C         143.0361  139.8738  166.1946 C.ar    1  UNL1       -0.0204
     31 C         143.2305  141.3558  166.0687 C.ar    1  UNL1       -0.0028
     32 C         143.2059  142.2220  167.2930 C.ar    1  UNL1        0.0196
     33 N         142.9375  143.3390  171.0918 N.3     1  UNL1       -0.2035
     34 S         142.9621  142.4727  169.8675 S.O2    1  UNL1        0.0572
     35 O         144.4084  142.8104  169.6576 O.2     1  UNL1       -0.1532
     36 O         141.5158  142.1349  170.0774 O.2     1  UNL1       -0.1532
     37 H         142.0047  143.3188  171.5039 H       1  UNL1        0.1442
     38 H         143.1752  144.2971  170.8351 H       1  UNL1        0.1442
@<TRIPOS>BOND
     1    33    34    1
     2    34    35    2
     3    34    36    2
     4    34    27    1
     5    27    28   ar
     6    28    29   ar
     7    29    30   ar
     8    30    26    1
     9    26    25    1
    10    25    23    1
    11    23     1    1
    12     1     2   ar
    13     2     3   ar
    14     3    11    1
    15    11    12   ar
    16    12    13   ar
    17    13    14   ar
    18    14    15   ar
    19    15    16   ar
    20     3     4   ar
    21     4     5   ar
    22     5     6   ar
    23     6     7   ar
    24     7     8   ar
    25     8     9   ar
    26     9    17    1
    27    17    18   ar
    28    18    19   ar
    29    19    20   ar
    30    20    21   ar
    31    21    22   ar
    32     9    10   ar
    33    30    31   ar
    34    31    32   ar
    35    32    27   ar
    36    10     1   ar
    37    16    11   ar
    38    10     5   ar
    39    22    17   ar
    40    33    37    1
    41    33    38    1
    42    23    24    1
@<TRIPOS>MOLECULE
*****
 38 42 0 0 0
SMALL
GASTEIGER

@<TRIPOS>ATOM
      1 C         140.6015  142.2159  165.3011 C.ar    1  UNL1        0.1315
      2 N         140.4782  142.6178  163.8613 N.ar    1  UNL1       -0.2120
      3 C         139.5164  141.8995  162.9619 C.ar    1  UNL1        0.1666
      4 N         138.6779  140.7793  163.5023 N.ar    1  UNL1       -0.2264
      5 C         138.8013  140.3774  164.9422 C.ar    1  UNL1        0.0856
      6 C         137.9628  139.2572  165.4827 C.ar    1  UNL1        0.0192
      7 C         138.0861  138.8553  166.9226 C.ar    1  UNL1        0.0015
      8 C         139.0479  139.5737  167.8220 C.ar    1  UNL1        0.0002
      9 C         139.8864  140.6938  167.2815 C.ar    1  UNL1        0.0041
     10 C         139.7631  141.0957  165.8417 C.ar    1  UNL1        0.0491
     11 C         139.3931  142.3014  161.5219 C.ar    1  UNL1        0.0741
     12 C         139.6742  143.7164  161.1115 C.ar    1  UNL1        0.1052
     13 N         139.5509  144.1183  159.6716 N.ar    1  UNL1       -0.2223
     14 C         139.1464  143.1051  158.6422 C.ar    1  UNL1        0.1989
     15 N         138.8653  141.6900  159.0526 N.ar    1  UNL1       -0.2223
     16 C         138.9886  141.2882  160.4925 C.ar    1  UNL1        0.1052
     17 C         140.8482  141.4122  168.1809 C.ar    1  UNL1        0.0001
     18 C         142.2538  140.9100  168.3297 C.ar    1  UNL1        0.0000
     19 C         143.2156  141.6283  169.2291 C.ar    1  UNL1        0.0000
     20 C         142.7718  142.8488  169.9798 C.ar    1  UNL1        0.0000
     21 C         141.3663  143.3509  169.8310 C.ar    1  UNL1        0.0000
     22 C         140.4045  142.6326  168.9315 C.ar    1  UNL1        0.0000
     23 N         141.5634  142.9342  166.2005 N.pl3   1  UNL1       -0.3177
     24 H         141.3286  143.0967  167.1427 H       1  UNL1        0.1482
     25 C         142.8828  143.4050  165.6644 C.3     1  UNL1        0.0929
     26 C         143.9867  142.4198  165.4177 C.3     1  UNL1        0.0475
     27 C         143.4507  139.1584  162.3639 C.ar    1  UNL1        0.1217
     28 C         143.6887  140.5709  161.9187 C.ar    1  UNL1        0.0196
     29 C         143.8674  141.6580  162.9367 C.ar    1  UNL1       -0.0028
     30 C         143.8080  141.3326  164.3998 C.ar    1  UNL1       -0.0204
     31 C         143.5700  139.9202  164.8449 C.ar    1  UNL1       -0.0028
     32 C         143.3914  138.8331  163.8270 C.ar    1  UNL1        0.0196
     33 N         143.0934  136.9841  160.3281 N.3     1  UNL1       -0.2035
     34 S         143.2720  138.0712  161.3459 S.O2    1  UNL1        0.0572
     35 O         142.1174  137.5249  162.1321 O.2     1  UNL1       -0.1532
     36 O         144.4267  138.6175  160.5597 O.2     1  UNL1       -0.1532
     37 H         143.7932  137.0879  159.5933 H       1  UNL1        0.1442
     38 H         142.1605  137.0496  159.9208 H       1  UNL1        0.1442
@<TRIPOS>BOND
     1    33    34    1
     2    34    35    2
     3    34    36    2
     4    34    27    1
     5    27    28   ar
     6    28    29   ar
     7    29    30   ar
     8    30    26    1
     9    26    25    1
    10    25    23    1
    11    23     1    1
    12     1     2   ar
    13     2     3   ar
    14     3    11    1
    15    11    12   ar
    16    12    13   ar
    17    13    14   ar
    18    14    15   ar
    19    15    16   ar
    20     3     4   ar
    21     4     5   ar
    22     5     6   ar
    23     6     7   ar
    24     7     8   ar
    25     8     9   ar
    26     9    17    1
    27    17    18   ar
    28    18    19   ar
    29    19    20   ar
    30    20    21   ar
    31    21    22   ar
    32     9    10   ar
    33    30    31   ar
    34    31    32   ar
    35    32    27   ar
    36    10     1   ar
    37    16    11   ar
    38    10     5   ar
    39    22    17   ar
    40    33    37    1
    41    33    38    1
    42    23    24    1
@<TRIPOS>MOLECULE
*****
 38 42 0 0 0
SMALL
GASTEIGER

@<TRIPOS>ATOM
      1 C         141.8701  139.9706  165.4223 C.ar    1  UNL1        0.1315
      2 N         142.2694  139.6443  164.0138 N.ar    1  UNL1       -0.2120
      3 C         141.3239  138.8981  163.1198 C.ar    1  UNL1        0.1666
      4 N         139.9790  138.4782  163.6344 N.ar    1  UNL1       -0.2264
      5 C         139.5796  138.8045  165.0430 C.ar    1  UNL1        0.0856
      6 C         138.2346  138.3845  165.5576 C.ar    1  UNL1        0.0192
      7 C         137.8353  138.7108  166.9662 C.ar    1  UNL1        0.0015
      8 C         138.7809  139.4570  167.8601 C.ar    1  UNL1        0.0002
      9 C         140.1258  139.8769  167.3455 C.ar    1  UNL1        0.0041
     10 C         140.5251  139.5506  165.9370 C.ar    1  UNL1        0.0491
     11 C         141.7233  138.5718  161.7112 C.ar    1  UNL1        0.0741
     12 C         140.7645  138.8167  160.5840 C.ar    1  UNL1        0.1052
     13 N         141.1639  138.4904  159.1755 N.ar    1  UNL1       -0.2223
     14 C         142.5221  137.9192  158.8942 C.ar    1  UNL1        0.1989
     15 N         143.4809  137.6744  160.0215 N.ar    1  UNL1       -0.2223
     16 C         143.0815  138.0007  161.4300 C.ar    1  UNL1        0.1052
     17 C         141.0713  140.6231  168.2394 C.ar    1  UNL1        0.0001
     18 C         142.0735  139.8720  169.0648 C.ar    1  UNL1        0.0000
     19 C         143.0191  140.6182  169.9588 C.ar    1  UNL1        0.0000
     20 C         142.9624  142.1155  170.0273 C.ar    1  UNL1        0.0000
     21 C         141.9603  142.8666  169.2019 C.ar    1  UNL1        0.0000
     22 C         141.0147  142.1205  168.3080 C.ar    1  UNL1        0.0000
     23 N         142.8156  140.7167  166.3162 N.pl3   1  UNL1       -0.3177
     24 H         142.7890  140.5736  167.2899 H       1  UNL1        0.1482
     25 C         143.8018  141.6810  165.7267 C.3     1  UNL1        0.0929
     26 C         143.4571  143.1372  165.6234 C.3     1  UNL1        0.0475
     27 C         141.2942  144.6853  161.9937 C.ar    1  UNL1        0.1217
     28 C         142.7613  144.3819  161.9198 C.ar    1  UNL1        0.0196
     29 C         143.4822  143.8659  163.1297 C.ar    1  UNL1       -0.0028
     30 C         142.7361  143.6532  164.4135 C.ar    1  UNL1       -0.0204
     31 C         141.2690  143.9566  164.4873 C.ar    1  UNL1       -0.0028
     32 C         140.5480  144.4727  163.2774 C.ar    1  UNL1        0.0196
     33 N         139.8521  145.7174  159.5739 N.3     1  UNL1       -0.2035
     34 S         140.5732  145.2014  160.7837 S.O2    1  UNL1        0.0572
     35 O         139.3221  145.3581  161.5962 O.2     1  UNL1       -0.1532
     36 O         141.8243  145.0446  159.9713 O.2     1  UNL1       -0.1532
     37 H         140.4908  145.7339  158.7788 H       1  UNL1        0.1442
     38 H         139.5131  146.6618  159.7572 H       1  UNL1        0.1442
@<TRIPOS>BOND
     1    33    34    1
     2    34    35    2
     3    34    36    2
     4    34    27    1
     5    27    28   ar
     6    28    29   ar
     7    29    30   ar
     8    30    26    1
     9    26    25    1
    10    25    23    1
    11    23     1    1
    12     1     2   ar
    13     2     3   ar
    14     3    11    1
    15    11    12   ar
    16    12    13   ar
    17    13    14   ar
    18    14    15   ar
    19    15    16   ar
    20     3     4   ar
    21     4     5   ar
    22     5     6   ar
    23     6     7   ar
    24     7     8   ar
    25     8     9   ar
    26     9    17    1
    27    17    18   ar
    28    18    19   ar
    29    19    20   ar
    30    20    21   ar
    31    21    22   ar
    32     9    10   ar
    33    30    31   ar
    34    31    32   ar
    35    32    27   ar
    36    10     1   ar
    37    16    11   ar
    38    10     5   ar
    39    22    17   ar
    40    33    37    1
    41    33    38    1
    42    23    24    1
@<TRIPOS>MOLECULE
*****
 38 42 0 0 0
SMALL
GASTEIGER

@<TRIPOS>ATOM
      1 C         141.7475  139.9832  164.7946 C.ar    1  UNL1        0.1315
      2 N         141.5899  139.3967  163.4231 N.ar    1  UNL1       -0.2120
      3 C         142.3601  139.9682  162.2698 C.ar    1  UNL1        0.1666
      4 N         143.2881  141.1263  162.4881 N.ar    1  UNL1       -0.2264
      5 C         143.4458  141.7129  163.8597 C.ar    1  UNL1        0.0856
      6 C         144.3737  142.8710  164.0779 C.ar    1  UNL1        0.0192
      7 C         144.5314  143.4575  165.4494 C.ar    1  UNL1        0.0015
      8 C         143.7611  142.8860  166.6027 C.ar    1  UNL1        0.0002
      9 C         142.8331  141.7279  166.3844 C.ar    1  UNL1        0.0041
     10 C         142.6755  141.1414  165.0129 C.ar    1  UNL1        0.0491
     11 C         142.2025  139.3816  160.8983 C.ar    1  UNL1        0.0741
     12 C         140.8342  139.0688  160.3691 C.ar    1  UNL1        0.1052
     13 N         140.6766  138.4823  158.9976 N.ar    1  UNL1       -0.2223
     14 C         141.8872  138.2085  158.1553 C.ar    1  UNL1        0.1989
     15 N         143.2554  138.5213  158.6844 N.ar    1  UNL1       -0.2223
     16 C         143.4130  139.1079  160.0559 C.ar    1  UNL1        0.1052
     17 C         142.0629  141.1563  167.5376 C.ar    1  UNL1        0.0001
     18 C         140.7383  141.7466  167.9209 C.ar    1  UNL1        0.0000
     19 C         139.9680  141.1750  169.0742 C.ar    1  UNL1        0.0000
     20 C         140.5223  140.0132  169.8441 C.ar    1  UNL1        0.0000
     21 C         141.8469  139.4229  169.4608 C.ar    1  UNL1        0.0000
     22 C         142.6172  139.9945  168.3076 C.ar    1  UNL1        0.0000
     23 N         140.9772  139.4116  165.9478 N.pl3   1  UNL1       -0.3177
     24 H         141.4060  139.3206  166.8293 H       1  UNL1        0.1482
     25 C         139.5537  138.9788  165.7579 C.3     1  UNL1        0.0929
     26 C         138.4775  140.0051  165.5618 C.3     1  UNL1        0.0475
     27 C         139.1625  143.4816  162.7879 C.ar    1  UNL1        0.1217
     28 C         138.7427  142.1521  162.2346 C.ar    1  UNL1        0.0196
     29 C         138.5143  140.9933  163.1592 C.ar    1  UNL1       -0.0028
     30 C         138.7058  141.1640  164.6371 C.ar    1  UNL1       -0.0204
     31 C         139.1256  142.4935  165.1904 C.ar    1  UNL1       -0.0028
     32 C         139.3540  143.6523  164.2658 C.ar    1  UNL1        0.0196
     33 N         139.6192  145.7993  160.9387 N.3     1  UNL1       -0.2035
     34 S         139.3908  144.6405  161.8632 S.O2    1  UNL1        0.0572
     35 O         139.8027  145.4895  163.0292 O.2     1  UNL1       -0.1532
     36 O         138.9790  143.7914  160.6973 O.2     1  UNL1       -0.1532
     37 H         139.4069  145.5176  159.9816 H       1  UNL1        0.1442
     38 H         140.5937  146.0947  160.9980 H       1  UNL1        0.1442
@<TRIPOS>BOND
     1    33    34    1
     2    34    35    2
     3    34    36    2
     4    34    27    1
     5    27    28   ar
     6    28    29   ar
     7    29    30   ar
     8    30    26    1
     9    26    25    1
    10    25    23    1
    11    23     1    1
    12     1     2   ar
    13     2     3   ar
    14     3    11    1
    15    11    12   ar
    16    12    13   ar
    17    13    14   ar
    18    14    15   ar
    19    15    16   ar
    20     3     4   ar
    21     4     5   ar
    22     5     6   ar
    23     6     7   ar
    24     7     8   ar
    25     8     9   ar
    26     9    17    1
    27    17    18   ar
    28    18    19   ar
    29    19    20   ar
    30    20    21   ar
    31    21    22   ar
    32     9    10   ar
    33    30    31   ar
    34    31    32   ar
    35    32    27   ar
    36    10     1   ar
    37    16    11   ar
    38    10     5   ar
    39    22    17   ar
    40    33    37    1
    41    33    38    1
    42    23    24    1
@<TRIPOS>MOLECULE
*****
 38 42 0 0 0
SMALL
GASTEIGER

@<TRIPOS>ATOM
      1 C         141.9959  141.2219  162.0066 C.ar    1  UNL1        0.1315
      2 N         141.8506  140.1277  160.9909 N.ar    1  UNL1       -0.2120
      3 C         141.1667  140.4030  159.6846 C.ar    1  UNL1        0.1666
      4 N         140.6281  141.7725  159.3939 N.ar    1  UNL1       -0.2264
      5 C         140.7734  142.8667  160.4097 C.ar    1  UNL1        0.0856
      6 C         140.2348  144.2361  160.1190 C.ar    1  UNL1        0.0192
      7 C         140.3801  145.3303  161.1347 C.ar    1  UNL1        0.0015
      8 C         141.0640  145.0550  162.4410 C.ar    1  UNL1        0.0002
      9 C         141.6026  143.6856  162.7317 C.ar    1  UNL1        0.0041
     10 C         141.4573  142.5914  161.7160 C.ar    1  UNL1        0.0491
     11 C         141.0214  139.3088  158.6689 C.ar    1  UNL1        0.0741
     12 C         139.6633  138.9480  158.1442 C.ar    1  UNL1        0.1052
     13 N         139.5180  137.8538  157.1285 N.ar    1  UNL1       -0.2223
     14 C         140.7309  137.1204  156.6375 C.ar    1  UNL1        0.1989
     15 N         142.0890  137.4812  157.1622 N.ar    1  UNL1       -0.2223
     16 C         142.2343  138.5754  158.1779 C.ar    1  UNL1        0.1052
     17 C         142.2865  143.4103  164.0380 C.ar    1  UNL1        0.0001
     18 C         143.7722  143.5790  164.1570 C.ar    1  UNL1        0.0000
     19 C         144.4561  143.3037  165.4633 C.ar    1  UNL1        0.0000
     20 C         143.6543  142.8597  166.6507 C.ar    1  UNL1        0.0000
     21 C         142.1686  142.6909  166.5317 C.ar    1  UNL1        0.0000
     22 C         141.4847  142.9662  165.2254 C.ar    1  UNL1        0.0000
     23 N         142.6798  140.9466  163.3129 N.pl3   1  UNL1       -0.3177
     24 H         143.0284  141.6924  163.8528 H       1  UNL1        0.1482
     25 C         142.8325  139.5350  163.7967 C.3     1  UNL1        0.0929
     26 C         141.7242  138.8827  164.5688 C.3     1  UNL1        0.0475
     27 C         141.1102  139.8916  168.9110 C.ar    1  UNL1        0.1217
     28 C         139.9623  139.9842  167.9500 C.ar    1  UNL1        0.0196
     29 C         140.1670  139.6479  166.5026 C.ar    1  UNL1       -0.0028
     30 C         141.5196  139.2190  166.0162 C.ar    1  UNL1       -0.0204
     31 C         142.6675  139.1264  166.9773 C.ar    1  UNL1       -0.0028
     32 C         142.4628  139.4626  168.4247 C.ar    1  UNL1        0.0196
     33 N         140.7009  140.5641  171.8059 N.3     1  UNL1       -0.2035
     34 S         140.9056  140.2278  170.3585 S.O2    1  UNL1        0.0572
     35 O         139.4560  139.8614  170.2386 O.2     1  UNL1       -0.1532
     36 O         142.3552  140.5943  170.4784 O.2     1  UNL1       -0.1532
     37 H         141.5839  140.8752  172.2108 H       1  UNL1        0.1442
     38 H         140.3712  139.7372  172.3037 H       1  UNL1        0.1442
@<TRIPOS>BOND
     1    33    34    1
     2    34    35    2
     3    34    36    2
     4    34    27    1
     5    27    28   ar
     6    28    29   ar
     7    29    30   ar
     8    30    26    1
     9    26    25    1
    10    25    23    1
    11    23     1    1
    12     1     2   ar
    13     2     3   ar
    14     3    11    1
    15    11    12   ar
    16    12    13   ar
    17    13    14   ar
    18    14    15   ar
    19    15    16   ar
    20     3     4   ar
    21     4     5   ar
    22     5     6   ar
    23     6     7   ar
    24     7     8   ar
    25     8     9   ar
    26     9    17    1
    27    17    18   ar
    28    18    19   ar
    29    19    20   ar
    30    20    21   ar
    31    21    22   ar
    32     9    10   ar
    33    30    31   ar
    34    31    32   ar
    35    32    27   ar
    36    10     1   ar
    37    16    11   ar
    38    10     5   ar
    39    22    17   ar
    40    33    37    1
    41    33    38    1
    42    23    24    1
@<TRIPOS>MOLECULE
*****
 38 42 0 0 0
SMALL
GASTEIGER

@<TRIPOS>ATOM
      1 C         142.1634  140.1040  165.1490 C.ar    1  UNL1        0.1315
      2 N         142.2895  140.6973  166.5208 N.ar    1  UNL1       -0.2120
      3 C         141.2127  140.4671  167.5394 C.ar    1  UNL1        0.1666
      4 N         140.0099  139.6435  167.1862 N.ar    1  UNL1       -0.2264
      5 C         139.8837  139.0501  165.8143 C.ar    1  UNL1        0.0856
      6 C         138.6809  138.2265  165.4610 C.ar    1  UNL1        0.0192
      7 C         138.5548  137.6332  164.0892 C.ar    1  UNL1        0.0015
      8 C         139.6316  137.8635  163.0706 C.ar    1  UNL1        0.0002
      9 C         140.8344  138.6870  163.4238 C.ar    1  UNL1        0.0041
     10 C         140.9605  139.2804  164.7957 C.ar    1  UNL1        0.0491
     11 C         141.3389  141.0604  168.9114 C.ar    1  UNL1        0.0741
     12 C         140.6657  140.4011  170.0784 C.ar    1  UNL1        0.1052
     13 N         140.7918  140.9945  171.4503 N.ar    1  UNL1       -0.2223
     14 C         141.5912  142.2472  171.6550 C.ar    1  UNL1        0.1989
     15 N         142.2644  142.9064  170.4879 N.ar    1  UNL1       -0.2223
     16 C         142.1382  142.3131  169.1161 C.ar    1  UNL1        0.1052
     17 C         141.9112  138.9173  162.4052 C.ar    1  UNL1        0.0001
     18 C         143.0518  137.9503  162.2879 C.ar    1  UNL1        0.0000
     19 C         144.1285  138.1805  161.2692 C.ar    1  UNL1        0.0000
     20 C         144.0647  139.3778  160.3680 C.ar    1  UNL1        0.0000
     21 C         142.9241  140.3449  160.4854 C.ar    1  UNL1        0.0000
     22 C         141.8474  140.1146  161.5040 C.ar    1  UNL1        0.0000
     23 N         143.2402  140.3343  164.1304 N.pl3   1  UNL1       -0.3177
     24 H         143.1126  140.0318  163.2022 H       1  UNL1        0.1482
     25 C         144.5113  141.0254  164.5259 C.3     1  UNL1        0.0929
     26 C         144.6854  142.4898  164.2517 C.3     1  UNL1        0.0475
     27 C         141.3092  144.8590  162.4523 C.ar    1  UNL1        0.1217
     28 C         142.3951  144.3139  161.5727 C.ar    1  UNL1        0.0196
     29 C         143.5205  143.5242  162.1725 C.ar    1  UNL1       -0.0028
     30 C         143.5600  143.2796  163.6519 C.ar    1  UNL1       -0.0204
     31 C         142.4741  143.8246  164.5315 C.ar    1  UNL1       -0.0028
     32 C         141.3487  144.6143  163.9317 C.ar    1  UNL1        0.0196
     33 N         139.0584  146.4385  161.2527 N.3     1  UNL1       -0.2035
     34 S         140.1837  145.6487  161.8525 S.O2    1  UNL1        0.0572
     35 O         140.9049  145.6777  160.5376 O.2     1  UNL1       -0.1532
     36 O         139.4626  145.6197  163.1674 O.2     1  UNL1       -0.1532
     37 H         138.3409  146.5989  161.9597 H       1  UNL1        0.1442
     38 H         138.6565  145.9189  160.4723 H       1  UNL1        0.1442
@<TRIPOS>BOND
     1    33    34    1
     2    34    35    2
     3    34    36    2
     4    34    27    1
     5    27    28   ar
     6    28    29   ar
     7    29    30   ar
     8    30    26    1
     9    26    25    1
    10    25    23    1
    11    23     1    1
    12     1     2   ar
    13     2     3   ar
    14     3    11    1
    15    11    12   ar
    16    12    13   ar
    17    13    14   ar
    18    14    15   ar
    19    15    16   ar
    20     3     4   ar
    21     4     5   ar
    22     5     6   ar
    23     6     7   ar
    24     7     8   ar
    25     8     9   ar
    26     9    17    1
    27    17    18   ar
    28    18    19   ar
    29    19    20   ar
    30    20    21   ar
    31    21    22   ar
    32     9    10   ar
    33    30    31   ar
    34    31    32   ar
    35    32    27   ar
    36    10     1   ar
    37    16    11   ar
    38    10     5   ar
    39    22    17   ar
    40    33    37    1
    41    33    38    1
    42    23    24    1
@<TRIPOS>MOLECULE
*****
 38 42 0 0 0
SMALL
GASTEIGER

@<TRIPOS>ATOM
      1 C         141.2731  140.5775  162.2495 C.ar    1  UNL1        0.1315
      2 N         140.1758  140.6441  161.2291 N.ar    1  UNL1       -0.2120
      3 C         140.3909  141.3869  159.9438 C.ar    1  UNL1        0.1666
      4 N         141.7034  142.0630  159.6789 N.ar    1  UNL1       -0.2264
      5 C         142.8008  141.9964  160.6994 C.ar    1  UNL1        0.0856
      6 C         144.1133  142.6725  160.4345 C.ar    1  UNL1        0.0192
      7 C         145.2107  142.6058  161.4549 C.ar    1  UNL1        0.0015
      8 C         144.9955  141.8630  162.7402 C.ar    1  UNL1        0.0002
      9 C         143.6830  141.1869  163.0051 C.ar    1  UNL1        0.0041
     10 C         142.5857  141.2536  161.9847 C.ar    1  UNL1        0.0491
     11 C         139.2934  141.4536  158.9233 C.ar    1  UNL1        0.0741
     12 C         139.0087  142.7427  158.2113 C.ar    1  UNL1        0.1052
     13 N         137.9113  142.8093  157.1909 N.ar    1  UNL1       -0.2223
     14 C         137.0986  141.5867  156.8826 C.ar    1  UNL1        0.1989
     15 N         137.3834  140.2976  157.5946 N.ar    1  UNL1       -0.2223
     16 C         138.4808  140.2310  158.6150 C.ar    1  UNL1        0.1052
     17 C         143.4679  140.4441  164.2904 C.ar    1  UNL1        0.0001
     18 C         143.1233  141.1954  165.5421 C.ar    1  UNL1        0.0000
     19 C         142.9081  140.4526  166.8274 C.ar    1  UNL1        0.0000
     20 C         143.0376  138.9586  166.8610 C.ar    1  UNL1        0.0000
     21 C         143.3823  138.2074  165.6093 C.ar    1  UNL1        0.0000
     22 C         143.5974  138.9502  164.3240 C.ar    1  UNL1        0.0000
     23 N         141.0580  139.8347  163.5348 N.pl3   1  UNL1       -0.3177
     24 H         141.7992  139.3308  163.9421 H       1  UNL1        0.1482
     25 C         139.7136  139.8597  164.1995 C.3     1  UNL1        0.0929
     26 C         139.2360  141.1087  164.8792 C.3     1  UNL1        0.0475
     27 C         140.1586  141.7961  169.2296 C.ar    1  UNL1        0.1217
     28 C         139.6513  140.4605  168.7724 C.ar    1  UNL1        0.0196
     29 C         139.3438  140.2315  167.3223 C.ar    1  UNL1       -0.0028
     30 C         139.5436  141.3379  166.3294 C.ar    1  UNL1       -0.0204
     31 C         140.0508  142.6734  166.7866 C.ar    1  UNL1       -0.0028
     32 C         140.3583  142.9025  168.2367 C.ar    1  UNL1        0.0196
     33 N         140.7736  142.2544  172.1299 N.3     1  UNL1       -0.2035
     34 S         140.4661  142.0252  170.6798 S.O2    1  UNL1        0.0572
     35 O         140.9820  143.3954  170.3539 O.2     1  UNL1       -0.1532
     36 O         139.9502  140.6550  171.0058 O.2     1  UNL1       -0.1532
     37 H         140.5126  141.4279  172.6676 H       1  UNL1        0.1442
     38 H         140.2455  143.0596  172.4663 H       1  UNL1        0.1442
@<TRIPOS>BOND
     1    33    34    1
     2    34    35    2
     3    34    36    2
     4    34    27    1
     5    27    28   ar
     6    28    29   ar
     7    29    30   ar
     8    30    26    1
     9    26    25    1
    10    25    23    1
    11    23     1    1
    12     1     2   ar
    13     2     3   ar
    14     3    11    1
    15    11    12   ar
    16    12    13   ar
    17    13    14   ar
    18    14    15   ar
    19    15    16   ar
    20     3     4   ar
    21     4     5   ar
    22     5     6   ar
    23     6     7   ar
    24     7     8   ar
    25     8     9   ar
    26     9    17    1
    27    17    18   ar
    28    18    19   ar
    29    19    20   ar
    30    20    21   ar
    31    21    22   ar
    32     9    10   ar
    33    30    31   ar
    34    31    32   ar
    35    32    27   ar
    36    10     1   ar
    37    16    11   ar
    38    10     5   ar
    39    22    17   ar
    40    33    37    1
    41    33    38    1
    42    23    24    1
@<TRIPOS>MOLECULE
*****
 38 42 0 0 0
SMALL
GASTEIGER

@<TRIPOS>ATOM
      1 C         141.3030  141.5376  162.1519 C.ar    1  UNL1        0.1315
      2 N         141.2376  140.5859  160.9943 N.ar    1  UNL1       -0.2120
      3 C         142.4999  140.0090  160.4253 C.ar    1  UNL1        0.1666
      4 N         143.8277  140.3839  161.0138 N.ar    1  UNL1       -0.2264
      5 C         143.8932  141.3357  162.1714 C.ar    1  UNL1        0.0856
      6 C         145.2210  141.7106  162.7599 C.ar    1  UNL1        0.0192
      7 C         145.2864  142.6623  163.9175 C.ar    1  UNL1        0.0015
      8 C         144.0241  143.2391  164.4865 C.ar    1  UNL1        0.0002
      9 C         142.6963  142.8642  163.8980 C.ar    1  UNL1        0.0041
     10 C         142.6309  141.9125  162.7405 C.ar    1  UNL1        0.0491
     11 C         142.4344  139.0573  159.2677 C.ar    1  UNL1        0.0741
     12 C         143.0119  137.6790  159.3964 C.ar    1  UNL1        0.1052
     13 N         142.9464  136.7273  158.2388 N.ar    1  UNL1       -0.2223
     14 C         142.3033  137.1540  156.9526 C.ar    1  UNL1        0.1989
     15 N         141.7258  138.5323  156.8239 N.ar    1  UNL1       -0.2223
     16 C         141.7913  139.4840  157.9815 C.ar    1  UNL1        0.1052
     17 C         141.4340  143.4410  164.4670 C.ar    1  UNL1        0.0001
     18 C         140.9153  142.9537  165.7874 C.ar    1  UNL1        0.0000
     19 C         139.6529  143.5305  166.3564 C.ar    1  UNL1        0.0000
     20 C         138.9093  144.5946  165.6051 C.ar    1  UNL1        0.0000
     21 C         139.4280  145.0820  164.2847 C.ar    1  UNL1        0.0000
     22 C         140.6903  144.5052  163.7157 C.ar    1  UNL1        0.0000
     23 N         140.0407  142.1144  162.7209 N.pl3   1  UNL1       -0.3177
     24 H         139.9470  143.0891  162.8226 H       1  UNL1        0.1482
     25 C         138.9211  141.2061  163.1350 C.3     1  UNL1        0.0929
     26 C         139.2257  139.8783  163.7629 C.3     1  UNL1        0.0475
     27 C         141.0036  139.6974  167.8928 C.ar    1  UNL1        0.1217
     28 C         139.5298  139.9163  167.7197 C.ar    1  UNL1        0.0196
     29 C         138.9372  139.9766  166.3430 C.ar    1  UNL1       -0.0028
     30 C         139.8184  139.8180  165.1395 C.ar    1  UNL1       -0.0204
     31 C         141.2921  139.5991  165.3126 C.ar    1  UNL1       -0.0028
     32 C         141.8848  139.5388  166.6893 C.ar    1  UNL1        0.0196
     33 N         142.1891  139.5767  170.6460 N.3     1  UNL1       -0.2035
     34 S         141.5963  139.6371  169.2694 S.O2    1  UNL1        0.0572
     35 O         142.9723  139.5839  168.6746 O.2     1  UNL1       -0.1532
     36 O         140.2204  139.6902  169.8642 O.2     1  UNL1       -0.1532
     37 H         141.4412  139.5971  171.3394 H       1  UNL1        0.1442
     38 H         142.8048  140.3777  170.7864 H       1  UNL1        0.1442
@<TRIPOS>BOND
     1    33    34    1
     2    34    35    2
     3    34    36    2
     4    34    27    1
     5    27    28   ar
     6    28    29   ar
     7    29    30   ar
     8    30    26    1
     9    26    25    1
    10    25    23    1
    11    23     1    1
    12     1     2   ar
    13     2     3   ar
    14     3    11    1
    15    11    12   ar
    16    12    13   ar
    17    13    14   ar
    18    14    15   ar
    19    15    16   ar
    20     3     4   ar
    21     4     5   ar
    22     5     6   ar
    23     6     7   ar
    24     7     8   ar
    25     8     9   ar
    26     9    17    1
    27    17    18   ar
    28    18    19   ar
    29    19    20   ar
    30    20    21   ar
    31    21    22   ar
    32     9    10   ar
    33    30    31   ar
    34    31    32   ar
    35    32    27   ar
    36    10     1   ar
    37    16    11   ar
    38    10     5   ar
    39    22    17   ar
    40    33    37    1
    41    33    38    1
    42    23    24    1
@<TRIPOS>MOLECULE
*****
 38 42 0 0 0
SMALL
GASTEIGER

@<TRIPOS>ATOM
      1 C         141.3995  140.4447  161.8035 C.ar    1  UNL1        0.1315
      2 N         142.5927  140.7323  160.9413 N.ar    1  UNL1       -0.2120
      3 C         142.4311  140.8609  159.4556 C.ar    1  UNL1        0.1666
      4 N         141.0761  140.7020  158.8321 N.ar    1  UNL1       -0.2264
      5 C         139.8828  140.4144  159.6943 C.ar    1  UNL1        0.0856
      6 C         138.5278  140.2554  159.0708 C.ar    1  UNL1        0.0192
      7 C         137.3346  139.9679  159.9330 C.ar    1  UNL1        0.0015
      8 C         137.4963  139.8393  161.4187 C.ar    1  UNL1        0.0002
      9 C         138.8512  139.9982  162.0422 C.ar    1  UNL1        0.0041
     10 C         140.0445  140.2858  161.1800 C.ar    1  UNL1        0.0491
     11 C         143.6244  141.1485  158.5934 C.ar    1  UNL1        0.0741
     12 C         144.4270  142.3960  158.8156 C.ar    1  UNL1        0.1052
     13 N         145.6203  142.6835  157.9534 N.ar    1  UNL1       -0.2223
     14 C         146.0109  141.7235  156.8691 C.ar    1  UNL1        0.1989
     15 N         145.2083  140.4760  156.6469 N.ar    1  UNL1       -0.2223
     16 C         144.0150  140.1885  157.5091 C.ar    1  UNL1        0.1052
     17 C         139.0129  139.8696  163.5279 C.ar    1  UNL1        0.0001
     18 C         139.2437  138.5213  164.1433 C.ar    1  UNL1        0.0000
     19 C         139.4053  138.3927  165.6290 C.ar    1  UNL1        0.0000
     20 C         139.3363  139.6124  166.4993 C.ar    1  UNL1        0.0000
     21 C         139.1055  140.9607  165.8839 C.ar    1  UNL1        0.0000
     22 C         138.9438  141.0893  164.3982 C.ar    1  UNL1        0.0000
     23 N         141.5612  140.3161  163.2892 N.pl3   1  UNL1       -0.3177
     24 H         140.7912  140.4692  163.8833 H       1  UNL1        0.1482
     25 C         142.8960  139.9543  163.8699 C.3     1  UNL1        0.0929
     26 C         143.5087  140.8146  164.9350 C.3     1  UNL1        0.0475
     27 C         141.8570  140.7323  169.1201 C.ar    1  UNL1        0.1217
     28 C         142.3622  139.4692  168.4882 C.ar    1  UNL1        0.0196
     29 C         142.9128  139.4966  167.0932 C.ar    1  UNL1       -0.0028
     30 C         142.9581  140.7872  166.3301 C.ar    1  UNL1       -0.0204
     31 C         142.4529  142.0503  166.9619 C.ar    1  UNL1       -0.0028
     32 C         141.9024  142.0229  168.3569 C.ar    1  UNL1        0.0196
     33 N         140.7558  140.6775  171.9101 N.3     1  UNL1       -0.2035
     34 S         141.3064  140.7049  170.5151 S.O2    1  UNL1        0.0572
     35 O         140.4483  139.5290  170.1533 O.2     1  UNL1       -0.1532
     36 O         142.1645  141.8808  170.8770 O.2     1  UNL1       -0.1532
     37 H         141.1811  141.4251  172.4583 H       1  UNL1        0.1442
     38 H         140.9668  139.7775  172.3413 H       1  UNL1        0.1442
@<TRIPOS>BOND
     1    33    34    1
     2    34    35    2
     3    34    36    2
     4    34    27    1
     5    27    28   ar
     6    28    29   ar
     7    29    30   ar
     8    30    26    1
     9    26    25    1
    10    25    23    1
    11    23     1    1
    12     1     2   ar
    13     2     3   ar
    14     3    11    1
    15    11    12   ar
    16    12    13   ar
    17    13    14   ar
    18    14    15   ar
    19    15    16   ar
    20     3     4   ar
    21     4     5   ar
    22     5     6   ar
    23     6     7   ar
    24     7     8   ar
    25     8     9   ar
    26     9    17    1
    27    17    18   ar
    28    18    19   ar
    29    19    20   ar
    30    20    21   ar
    31    21    22   ar
    32     9    10   ar
    33    30    31   ar
    34    31    32   ar
    35    32    27   ar
    36    10     1   ar
    37    16    11   ar
    38    10     5   ar
    39    22    17   ar
    40    33    37    1
    41    33    38    1
    42    23    24    1
