@<TRIPOS>MOLECULE
*****
 40 45 0 0 0
SMALL
GASTEIGER

@<TRIPOS>ATOM
      1 C         142.8068  135.6133  157.6981 C.ar    1  UNL1        0.2400
      2 N         142.2449  135.1857  156.3746 N.ar    1  UNL1       -0.2090
      3 C         141.5098  136.1732  155.5175 C.ar    1  UNL1        0.1021
      4 C         141.1566  137.6661  155.6809 C.ar    1  UNL1        0.0207
      5 C         141.9236  137.1144  156.8459 C.ar    1  UNL1        0.0221
      6 C         142.6337  137.0284  158.1644 C.ar    1  UNL1        0.1178
      7 N         143.2099  137.4176  159.4935 N.pl3   1  UNL1       -0.2104
      8 S         143.5896  138.2398  160.6893 S.O2    1  UNL1        0.0737
      9 O         144.0489  136.8141  160.7679 O.2     1  UNL1       -0.1499
     10 O         144.3384  137.9165  161.9481 O.2     1  UNL1       -0.1499
     11 C         143.6755  139.7518  161.7089 C.ar    1  UNL1        0.1253
     12 C         144.4074  139.5464  163.0019 C.ar    1  UNL1        0.0202
     13 C         144.5704  140.6882  163.9609 C.ar    1  UNL1        0.0015
     14 C         144.0015  142.0354  163.6268 C.ar    1  UNL1        0.0046
     15 C         143.2696  142.2407  162.3337 C.ar    1  UNL1        0.0547
     16 C         143.1066  141.0989  161.3747 C.ar    1  UNL1        0.0247
     17 C         142.7152  143.6021  162.0356 C.2     1  UNL1        0.2459
     18 O         143.1488  144.3228  163.2776 O.2     1  UNL1       -0.2701
     19 N         142.0180  144.7265  161.3286 N.am    1  UNL1       -0.3009
     20 C         141.2536  145.4917  160.2893 C.3     1  UNL1        0.0898
     21 C         140.5048  145.8150  159.0303 C.3     1  UNL1        0.0230
     22 C         139.8528  145.6613  157.6882 C.3     1  UNL1        0.0232
     23 C         139.3683  145.0472  156.4084 C.3     1  UNL1        0.0922
     24 N         139.1036  144.0394  155.3294 N.pl3   1  UNL1       -0.2932
     25 C         139.7556  144.1931  156.6716 C.3     1  UNL1        0.0922
     26 C         140.2402  144.8071  157.9514 C.3     1  UNL1        0.0232
     27 C         139.0876  142.7468  154.5683 C.ar    1  UNL1        0.1348
     28 N         138.3365  143.6432  153.6288 N.ar    1  UNL1       -0.2090
     29 C         137.8199  143.1025  152.3286 C.ar    1  UNL1        0.2000
     30 N         138.0542  141.6655  151.9678 N.ar    1  UNL1       -0.2239
     31 C         138.8052  140.7692  152.9073 C.ar    1  UNL1        0.0857
     32 C         139.1207  139.1687  152.6103 C.ar    1  UNL1        0.0192
     33 C         139.8570  138.1878  153.4738 C.ar    1  UNL1        0.0016
     34 C         140.4157  138.6240  154.7957 C.ar    1  UNL1        0.0017
     35 C         139.7812  139.8841  154.2861 C.ar    1  UNL1        0.0043
     36 C         139.3219  141.3099  154.2075 C.ar    1  UNL1        0.0493
     37 H         143.6013  136.5544  159.7595 H       1  UNL1        0.1739
     38 H         142.1520  145.4423  161.9910 H       1  UNL1        0.1497
     39 C         144.1955  133.4297  157.9290 C.3     1  UNL1        0.2543
     40 O         143.5418  134.6257  158.5551 O.3     1  UNL1       -0.4553
@<TRIPOS>BOND
     1    39    40    1
     2    40     1    1
     3     1     2   ar
     4     2     3   ar
     5     3     4   ar
     6     4     5   ar
     7     5     6   ar
     8     6     7    1
     9     7     8    1
    10     8     9    2
    11     8    10    2
    12     8    11    1
    13    11    12   ar
    14    12    13   ar
    15    13    14   ar
    16    14    15   ar
    17    15    16   ar
    18    15    17    1
    19    17    18    2
    20    17    19   am
    21    19    20    1
    22    20    21    1
    23    21    22    1
    24    22    23    1
    25    23    24    1
    26    24    25    1
    27    25    26    1
    28    24    27    1
    29    27    28   ar
    30    28    29   ar
    31    29    30   ar
    32    30    31   ar
    33    31    32   ar
    34    32    33   ar
    35    33    34   ar
    36    34    35   ar
    37    35    36   ar
    38     6     1   ar
    39    16    11   ar
    40    26    21    1
    41    36    27   ar
    42    34     4    1
    43    36    31   ar
    44     7    37    1
    45    19    38    1
@<TRIPOS>MOLECULE
*****
 40 45 0 0 0
SMALL
GASTEIGER

@<TRIPOS>ATOM
      1 C         139.2760  146.8398  156.8167 C.ar    1  UNL1        0.2400
      2 N         139.1749  146.7556  155.3224 N.ar    1  UNL1       -0.2090
      3 C         139.5698  145.4938  154.6139 C.ar    1  UNL1        0.1021
      4 C         140.1065  144.1292  155.0936 C.ar    1  UNL1        0.0207
      5 C         139.8575  145.0895  156.2187 C.ar    1  UNL1        0.0221
      6 C         139.7718  145.6622  157.6024 C.ar    1  UNL1        0.1178
      7 N         139.8586  145.7852  159.0948 N.pl3   1  UNL1       -0.2104
      8 S         140.1085  145.4451  160.5342 S.O2    1  UNL1        0.0737
      9 O         139.5863  146.8356  160.3255 O.2     1  UNL1       -0.1499
     10 O         139.9389  146.2222  161.8059 O.2     1  UNL1       -0.1499
     11 C         140.6168  144.3809  161.9278 C.ar    1  UNL1        0.1253
     12 C         140.4887  145.0581  163.2601 C.ar    1  UNL1        0.0202
     13 C         140.8647  144.3248  164.5134 C.ar    1  UNL1        0.0015
     14 C         141.3689  142.9143  164.4344 C.ar    1  UNL1        0.0046
     15 C         141.4970  142.2371  163.1022 C.ar    1  UNL1        0.0547
     16 C         141.1210  142.9704  161.8489 C.ar    1  UNL1        0.0247
     17 C         142.0049  140.8262  163.0644 C.2     1  UNL1        0.2459
     18 O         142.2160  140.6003  164.5322 O.2     1  UNL1       -0.2701
     19 N         142.4434  139.4897  162.5435 N.am    1  UNL1       -0.3009
     20 C         142.7648  138.3723  161.5957 C.3     1  UNL1        0.0898
     21 C         142.9345  137.5952  160.3239 C.3     1  UNL1        0.0230
     22 C         142.9339  137.2425  158.8660 C.3     1  UNL1        0.0232
     23 C         142.7632  137.3526  157.3798 C.3     1  UNL1        0.0922
     24 N         142.4409  137.9134  156.0265 N.pl3   1  UNL1       -0.2932
     25 C         142.4415  138.2660  157.4844 C.3     1  UNL1        0.0922
     26 C         142.6121  138.1560  158.9706 C.3     1  UNL1        0.0232
     27 C         142.0019  138.8642  154.9526 C.ar    1  UNL1        0.1348
     28 N         142.3669  137.6588  154.1378 N.ar    1  UNL1       -0.2090
     29 C         142.2238  137.6912  152.6450 C.ar    1  UNL1        0.2000
     30 N         141.7156  138.9290  151.9670 N.ar    1  UNL1       -0.2239
     31 C         141.3505  140.1343  152.7817 C.ar    1  UNL1        0.0857
     32 C         140.7802  141.5520  152.1380 C.ar    1  UNL1        0.0192
     33 C         140.3875  142.8098  152.8547 C.ar    1  UNL1        0.0016
     34 C         140.4917  142.8853  154.3491 C.ar    1  UNL1        0.0017
     35 C         140.9714  141.4925  154.0658 C.ar    1  UNL1        0.0043
     36 C         141.4937  140.1019  154.2745 C.ar    1  UNL1        0.0493
     37 H         139.5334  146.7084  159.2005 H       1  UNL1        0.1739
     38 H         142.6766  139.0527  163.3943 H       1  UNL1        0.1497
     39 C         138.4614  149.3055  156.7349 C.3     1  UNL1        0.2543
     40 O         138.8811  148.1016  157.5251 O.3     1  UNL1       -0.4553
@<TRIPOS>BOND
     1    39    40    1
     2    40     1    1
     3     1     2   ar
     4     2     3   ar
     5     3     4   ar
     6     4     5   ar
     7     5     6   ar
     8     6     7    1
     9     7     8    1
    10     8     9    2
    11     8    10    2
    12     8    11    1
    13    11    12   ar
    14    12    13   ar
    15    13    14   ar
    16    14    15   ar
    17    15    16   ar
    18    15    17    1
    19    17    18    2
    20    17    19   am
    21    19    20    1
    22    20    21    1
    23    21    22    1
    24    22    23    1
    25    23    24    1
    26    24    25    1
    27    25    26    1
    28    24    27    1
    29    27    28   ar
    30    28    29   ar
    31    29    30   ar
    32    30    31   ar
    33    31    32   ar
    34    32    33   ar
    35    33    34   ar
    36    34    35   ar
    37    35    36   ar
    38     6     1   ar
    39    16    11   ar
    40    26    21    1
    41    36    27   ar
    42    34     4    1
    43    36    31   ar
    44     7    37    1
    45    19    38    1
@<TRIPOS>MOLECULE
*****
 40 45 0 0 0
SMALL
GASTEIGER

@<TRIPOS>ATOM
      1 C         143.0060  137.0507  156.7357 C.ar    1  UNL1        0.2400
      2 N         143.0764  137.3490  155.2674 N.ar    1  UNL1       -0.2090
      3 C         142.7304  138.7186  154.7628 C.ar    1  UNL1        0.1021
      4 C         142.2758  140.0216  155.4526 C.ar    1  UNL1        0.0207
      5 C         142.5013  138.8955  156.4175 C.ar    1  UNL1        0.0221
      6 C         142.5897  138.1220  157.6996 C.ar    1  UNL1        0.1178
      7 N         142.5314  137.7850  159.1601 N.pl3   1  UNL1       -0.2104
      8 S         142.3329  137.9209  160.6406 S.O2    1  UNL1        0.0737
      9 O         142.7781  136.5531  160.2155 O.2     1  UNL1       -0.1499
     10 O         142.4920  136.9580  161.7796 O.2     1  UNL1       -0.1499
     11 C         141.9125  138.7913  162.1894 C.ar    1  UNL1        0.1253
     12 C         142.0367  137.9201  163.4041 C.ar    1  UNL1        0.0202
     13 C         141.7281  138.4780  164.7618 C.ar    1  UNL1        0.0015
     14 C         141.2953  139.9070  164.9049 C.ar    1  UNL1        0.0046
     15 C         141.1712  140.7782  163.6902 C.ar    1  UNL1        0.0547
     16 C         141.4798  140.2204  162.3325 C.ar    1  UNL1        0.0247
     17 C         140.7356  142.2018  163.8741 C.2     1  UNL1        0.2459
     18 O         140.5707  142.2189  165.3649 O.2     1  UNL1       -0.2701
     19 N         140.3544  143.6197  163.5673 N.am    1  UNL1       -0.3009
     20 C         140.0687  144.8784  162.8029 C.3     1  UNL1        0.0898
     21 C         139.9096  145.8413  161.6638 C.3     1  UNL1        0.0230
     22 C         139.8943  146.4043  160.2736 C.3     1  UNL1        0.0232
     23 C         140.0245  146.5061  158.7827 C.3     1  UNL1        0.0922
     24 N         140.2860  146.1360  157.3529 N.pl3   1  UNL1       -0.2932
     25 C         140.3013  145.5730  158.7431 C.3     1  UNL1        0.0922
     26 C         140.1711  145.4711  160.2340 C.3     1  UNL1        0.0232
     27 C         140.6505  145.3338  156.1389 C.ar    1  UNL1        0.1348
     28 N         140.3289  146.6620  155.5201 N.ar    1  UNL1       -0.2090
     29 C         140.4354  146.8429  154.0349 C.ar    1  UNL1        0.2000
     30 N         140.8635  145.6957  153.1684 N.ar    1  UNL1       -0.2239
     31 C         141.1850  144.3676  153.7871 C.ar    1  UNL1        0.0857
     32 C         141.6667  143.0348  152.9264 C.ar    1  UNL1        0.0192
     33 C         142.0108  141.6680  153.4396 C.ar    1  UNL1        0.0016
     34 C         141.9377  141.3784  154.9096 C.ar    1  UNL1        0.0017
     35 C         141.5237  142.8188  154.8472 C.ar    1  UNL1        0.0043
     36 C         141.0785  144.1867  155.2724 C.ar    1  UNL1        0.0493
     37 H         142.8112  136.8419  159.1200 H       1  UNL1        0.1739
     38 H         140.1638  143.9372  164.4795 H       1  UNL1        0.1497
     39 C         143.7324  134.5996  156.2730 C.3     1  UNL1        0.2543
     40 O         143.3519  135.6811  157.2402 O.3     1  UNL1       -0.4553
@<TRIPOS>BOND
     1    39    40    1
     2    40     1    1
     3     1     2   ar
     4     2     3   ar
     5     3     4   ar
     6     4     5   ar
     7     5     6   ar
     8     6     7    1
     9     7     8    1
    10     8     9    2
    11     8    10    2
    12     8    11    1
    13    11    12   ar
    14    12    13   ar
    15    13    14   ar
    16    14    15   ar
    17    15    16   ar
    18    15    17    1
    19    17    18    2
    20    17    19   am
    21    19    20    1
    22    20    21    1
    23    21    22    1
    24    22    23    1
    25    23    24    1
    26    24    25    1
    27    25    26    1
    28    24    27    1
    29    27    28   ar
    30    28    29   ar
    31    29    30   ar
    32    30    31   ar
    33    31    32   ar
    34    32    33   ar
    35    33    34   ar
    36    34    35   ar
    37    35    36   ar
    38     6     1   ar
    39    16    11   ar
    40    26    21    1
    41    36    27   ar
    42    34     4    1
    43    36    31   ar
    44     7    37    1
    45    19    38    1
@<TRIPOS>MOLECULE
*****
 40 45 0 0 0
SMALL
GASTEIGER

@<TRIPOS>ATOM
      1 C         140.0650  145.8209  155.2369 C.ar    1  UNL1        0.2400
      2 N         139.7059  146.8904  156.2254 N.ar    1  UNL1       -0.2090
      3 C         139.7927  146.6115  157.6967 C.ar    1  UNL1        0.1021
      4 C         140.2009  145.3730  158.5212 C.ar    1  UNL1        0.0207
      5 C         140.2825  145.1447  157.0409 C.ar    1  UNL1        0.0221
      6 C         140.5110  144.4726  155.7196 C.ar    1  UNL1        0.1178
      7 N         140.8615  143.4293  154.7003 N.pl3   1  UNL1       -0.2104
      8 S         141.2961  142.1282  154.0936 S.O2    1  UNL1        0.0737
      9 O         140.9508  143.1796  153.0811 O.2     1  UNL1       -0.1499
     10 O         141.4533  141.6718  152.6735 O.2     1  UNL1       -0.1499
     11 C         141.8715  140.3957  154.1092 C.ar    1  UNL1        0.1253
     12 C         142.0650  139.8294  152.7338 C.ar    1  UNL1        0.0202
     13 C         142.5354  138.4153  152.5643 C.ar    1  UNL1        0.0015
     14 C         142.8123  137.5673  153.7702 C.ar    1  UNL1        0.0046
     15 C         142.6188  138.1335  155.1457 C.ar    1  UNL1        0.0547
     16 C         142.1484  139.5477  155.3152 C.ar    1  UNL1        0.0247
     17 C         142.9061  137.2544  156.3266 C.2     1  UNL1        0.2459
     18 O         143.3239  136.0053  155.6087 O.2     1  UNL1       -0.2701
     19 N         143.0560  136.7864  157.7438 N.am    1  UNL1       -0.3009
     20 C         143.0521  136.7803  159.2438 C.3     1  UNL1        0.0898
     21 C         142.8949  137.2368  160.6640 C.3     1  UNL1        0.0230
     22 C         142.6014  138.1063  161.8505 C.3     1  UNL1        0.0232
     23 C         142.2035  139.2948  162.6747 C.3     1  UNL1        0.0922
     24 N         141.7441  140.6731  163.0473 N.pl3   1  UNL1       -0.2932
     25 C         142.0376  139.8036  161.8608 C.3     1  UNL1        0.0922
     26 C         142.4356  138.6153  161.0366 C.3     1  UNL1        0.0232
     27 C         141.2732  142.0924  162.9280 C.ar    1  UNL1        0.1348
     28 N         141.3214  141.9297  164.4184 N.ar    1  UNL1       -0.2090
     29 C         140.9381  143.0731  165.3104 C.ar    1  UNL1        0.2000
     30 N         140.5066  144.3792  164.7120 N.ar    1  UNL1       -0.2239
     31 C         140.4585  144.5418  163.2216 C.ar    1  UNL1        0.0857
     32 C         139.9978  145.9378  162.4546 C.ar    1  UNL1        0.0192
     33 C         139.9139  146.2080  160.9815 C.ar    1  UNL1        0.0016
     34 C         140.2749  145.1327  160.0000 C.ar    1  UNL1        0.0017
     35 C         140.4965  144.4499  161.3171 C.ar    1  UNL1        0.0043
     36 C         140.8418  143.3984  162.3296 C.ar    1  UNL1        0.0493
     37 H         140.6939  143.9437  153.8778 H       1  UNL1        0.1739
     38 H         143.3625  135.8655  157.5788 H       1  UNL1        0.1497
     39 C         141.0872  146.8368  153.0752 C.3     1  UNL1        0.2543
     40 O         139.9782  146.0998  153.7656 O.3     1  UNL1       -0.4553
@<TRIPOS>BOND
     1    39    40    1
     2    40     1    1
     3     1     2   ar
     4     2     3   ar
     5     3     4   ar
     6     4     5   ar
     7     5     6   ar
     8     6     7    1
     9     7     8    1
    10     8     9    2
    11     8    10    2
    12     8    11    1
    13    11    12   ar
    14    12    13   ar
    15    13    14   ar
    16    14    15   ar
    17    15    16   ar
    18    15    17    1
    19    17    18    2
    20    17    19   am
    21    19    20    1
    22    20    21    1
    23    21    22    1
    24    22    23    1
    25    23    24    1
    26    24    25    1
    27    25    26    1
    28    24    27    1
    29    27    28   ar
    30    28    29   ar
    31    29    30   ar
    32    30    31   ar
    33    31    32   ar
    34    32    33   ar
    35    33    34   ar
    36    34    35   ar
    37    35    36   ar
    38     6     1   ar
    39    16    11   ar
    40    26    21    1
    41    36    27   ar
    42    34     4    1
    43    36    31   ar
    44     7    37    1
    45    19    38    1
@<TRIPOS>MOLECULE
*****
 40 45 0 0 0
SMALL
GASTEIGER

@<TRIPOS>ATOM
      1 C         143.0072  139.9559  161.9671 C.ar    1  UNL1        0.2400
      2 N         142.7981  141.3088  162.5803 N.ar    1  UNL1       -0.2090
      3 C         142.2073  142.4194  161.7631 C.ar    1  UNL1        0.1021
      4 C         141.7145  142.5193  160.3046 C.ar    1  UNL1        0.0207
      5 C         142.2328  141.1563  160.6561 C.ar    1  UNL1        0.0221
      6 C         142.6255  139.7135  160.5369 C.ar    1  UNL1        0.1178
      7 N         142.8499  138.3473  159.9597 N.pl3   1  UNL1       -0.2104
      8 S         142.8819  137.2057  158.9873 S.O2    1  UNL1        0.0737
      9 O         143.4169  136.8564  160.3443 O.2     1  UNL1       -0.1499
     10 O         143.3437  135.7835  159.1050 O.2     1  UNL1       -0.1499
     11 C         142.6171  136.3826  157.3794 C.ar    1  UNL1        0.1253
     12 C         143.0458  134.9452  157.3786 C.ar    1  UNL1        0.0202
     13 C         142.8976  134.1190  156.1355 C.ar    1  UNL1        0.0015
     14 C         142.3208  134.7303  154.8930 C.ar    1  UNL1        0.0046
     15 C         141.8921  136.1677  154.8938 C.ar    1  UNL1        0.0547
     16 C         142.0402  136.9938  156.1369 C.ar    1  UNL1        0.0247
     17 C         141.3200  136.7427  153.6321 C.2     1  UNL1        0.2459
     18 O         141.4012  135.5322  152.7500 O.2     1  UNL1       -0.2701
     19 N         140.7211  137.7162  152.6606 N.am    1  UNL1       -0.3009
     20 C         140.1604  138.9827  152.0848 C.3     1  UNL1        0.0898
     21 C         139.6986  140.4050  151.9671 C.3     1  UNL1        0.0230
     22 C         139.3857  141.8290  152.3201 C.3     1  UNL1        0.0232
     23 C         139.2558  143.1002  153.1056 C.3     1  UNL1        0.0922
     24 N         139.3227  144.0810  154.2385 N.pl3   1  UNL1       -0.2932
     25 C         139.6356  142.6570  153.8855 C.3     1  UNL1        0.0922
     26 C         139.7656  141.3858  153.1000 C.3     1  UNL1        0.0232
     27 C         139.5794  144.6651  155.5961 C.ar    1  UNL1        0.1348
     28 N         138.9989  145.8479  154.8792 N.ar    1  UNL1       -0.2090
     29 C         138.8369  147.1548  155.5974 C.ar    1  UNL1        0.2000
     30 N         139.2554  147.2789  157.0325 N.ar    1  UNL1       -0.2239
     31 C         139.8360  146.0961  157.7494 C.ar    1  UNL1        0.0857
     32 C         140.3309  146.1208  159.3317 C.ar    1  UNL1        0.0192
     33 C         140.9211  145.0045  160.1414 C.ar    1  UNL1        0.0016
     34 C         141.1266  143.6548  159.5203 C.ar    1  UNL1        0.0017
     35 C         140.5330  144.4398  158.3883 C.ar    1  UNL1        0.0043
     36 C         139.9980  144.7892  157.0312 C.ar    1  UNL1        0.0493
     37 H         143.2338  137.8995  160.7480 H       1  UNL1        0.1739
     38 H         140.6450  137.1320  151.8719 H       1  UNL1        0.1497
     39 C         143.3542  138.7909  164.2632 C.3     1  UNL1        0.2543
     40 O         143.5980  138.8454  162.7842 O.3     1  UNL1       -0.4553
@<TRIPOS>BOND
     1    39    40    1
     2    40     1    1
     3     1     2   ar
     4     2     3   ar
     5     3     4   ar
     6     4     5   ar
     7     5     6   ar
     8     6     7    1
     9     7     8    1
    10     8     9    2
    11     8    10    2
    12     8    11    1
    13    11    12   ar
    14    12    13   ar
    15    13    14   ar
    16    14    15   ar
    17    15    16   ar
    18    15    17    1
    19    17    18    2
    20    17    19   am
    21    19    20    1
    22    20    21    1
    23    21    22    1
    24    22    23    1
    25    23    24    1
    26    24    25    1
    27    25    26    1
    28    24    27    1
    29    27    28   ar
    30    28    29   ar
    31    29    30   ar
    32    30    31   ar
    33    31    32   ar
    34    32    33   ar
    35    33    34   ar
    36    34    35   ar
    37    35    36   ar
    38     6     1   ar
    39    16    11   ar
    40    26    21    1
    41    36    27   ar
    42    34     4    1
    43    36    31   ar
    44     7    37    1
    45    19    38    1
@<TRIPOS>MOLECULE
*****
 40 45 0 0 0
SMALL
GASTEIGER

@<TRIPOS>ATOM
      1 C         143.4959  139.6888  161.5927 C.ar    1  UNL1        0.2400
      2 N         143.9385  138.2633  161.7411 N.ar    1  UNL1       -0.2090
      3 C         143.7085  137.2865  160.6261 C.ar    1  UNL1        0.1021
      4 C         143.0653  137.4016  159.2285 C.ar    1  UNL1        0.0207
      5 C         143.0550  138.6958  159.9868 C.ar    1  UNL1        0.0221
      6 C         142.8232  140.1376  160.3294 C.ar    1  UNL1        0.1178
      7 N         142.3951  141.5710  160.2188 N.pl3   1  UNL1       -0.2104
      8 S         141.8171  142.8405  159.6673 S.O2    1  UNL1        0.0737
      9 O         142.3838  142.9866  161.0484 O.2     1  UNL1       -0.1499
     10 O         141.6944  144.2274  160.2254 O.2     1  UNL1       -0.1499
     11 C         140.9929  143.8887  158.4204 C.ar    1  UNL1        0.1253
     12 C         140.8150  145.3079  158.8722 C.ar    1  UNL1        0.0202
     13 C         140.1543  146.3057  157.9679 C.ar    1  UNL1        0.0015
     14 C         139.6715  145.8842  156.6117 C.ar    1  UNL1        0.0046
     15 C         139.8493  144.4650  156.1598 C.ar    1  UNL1        0.0547
     16 C         140.5100  143.4673  157.0642 C.ar    1  UNL1        0.0247
     17 C         139.3533  144.0822  154.7970 C.2     1  UNL1        0.2459
     18 O         138.8074  145.4065  154.3519 O.2     1  UNL1       -0.2701
     19 N         139.0370  143.2634  153.5807 N.am    1  UNL1       -0.3009
     20 C         138.9347  142.0973  152.6426 C.3     1  UNL1        0.0898
     21 C         139.0574  140.7104  152.0846 C.3     1  UNL1        0.0230
     22 C         139.3919  139.2529  151.9669 C.3     1  UNL1        0.0232
     23 C         139.9019  137.8828  152.3026 C.3     1  UNL1        0.0922
     24 N         140.5322  136.7485  153.0549 N.pl3   1  UNL1       -0.2932
     25 C         140.1977  138.2060  153.1726 C.3     1  UNL1        0.0922
     26 C         139.6877  139.5762  152.8370 C.3     1  UNL1        0.0232
     27 C         141.2144  135.9730  154.1427 C.ar    1  UNL1        0.1348
     28 N         141.0383  134.9102  153.0988 N.ar    1  UNL1       -0.2090
     29 C         141.5224  133.5148  153.3601 C.ar    1  UNL1        0.2000
     30 N         142.1827  133.1820  154.6653 N.ar    1  UNL1       -0.2239
     31 C         142.3588  134.2448  155.7091 C.ar    1  UNL1        0.0857
     32 C         143.0729  133.9885  157.1835 C.ar    1  UNL1        0.0192
     33 C         143.2990  134.9719  158.2933 C.ar    1  UNL1        0.0016
     34 C         142.8531  136.3955  158.1364 C.ar    1  UNL1        0.0017
     35 C         142.4414  135.7863  156.8290 C.ar    1  UNL1        0.0043
     36 C         141.8746  135.6402  155.4478 C.ar    1  UNL1        0.0493
     37 H         142.6941  141.8976  161.0982 H       1  UNL1        0.1739
     38 H         138.6104  143.9558  153.0257 H       1  UNL1        0.1497
     39 C         145.0509  141.3564  162.8381 C.3     1  UNL1        0.2543
     40 O         143.7260  140.6655  162.7077 O.3     1  UNL1       -0.4553
@<TRIPOS>BOND
     1    39    40    1
     2    40     1    1
     3     1     2   ar
     4     2     3   ar
     5     3     4   ar
     6     4     5   ar
     7     5     6   ar
     8     6     7    1
     9     7     8    1
    10     8     9    2
    11     8    10    2
    12     8    11    1
    13    11    12   ar
    14    12    13   ar
    15    13    14   ar
    16    14    15   ar
    17    15    16   ar
    18    15    17    1
    19    17    18    2
    20    17    19   am
    21    19    20    1
    22    20    21    1
    23    21    22    1
    24    22    23    1
    25    23    24    1
    26    24    25    1
    27    25    26    1
    28    24    27    1
    29    27    28   ar
    30    28    29   ar
    31    29    30   ar
    32    30    31   ar
    33    31    32   ar
    34    32    33   ar
    35    33    34   ar
    36    34    35   ar
    37    35    36   ar
    38     6     1   ar
    39    16    11   ar
    40    26    21    1
    41    36    27   ar
    42    34     4    1
    43    36    31   ar
    44     7    37    1
    45    19    38    1
@<TRIPOS>MOLECULE
*****
 40 45 0 0 0
SMALL
GASTEIGER

@<TRIPOS>ATOM
      1 C         143.0155  137.3696  157.0018 C.ar    1  UNL1        0.2400
      2 N         143.1614  136.4187  158.1528 N.ar    1  UNL1       -0.2090
      3 C         142.8253  136.8680  159.5440 C.ar    1  UNL1        0.1021
      4 C         142.3169  138.1983  160.1373 C.ar    1  UNL1        0.0207
      5 C         142.5046  138.2535  158.6501 C.ar    1  UNL1        0.0221
      6 C         142.5336  138.7695  157.2419 C.ar    1  UNL1        0.1178
      7 N         142.4007  139.6906  156.0655 N.pl3   1  UNL1       -0.2104
      8 S         142.1206  140.9167  155.2481 S.O2    1  UNL1        0.0737
      9 O         142.6060  139.7509  154.4387 O.2     1  UNL1       -0.1499
     10 O         142.2304  141.2062  153.7805 O.2     1  UNL1       -0.1499
     11 C         141.6055  142.6452  154.9653 C.ar    1  UNL1        0.1253
     12 C         141.6752  143.0493  153.5224 C.ar    1  UNL1        0.0202
     13 C         141.2862  144.4390  153.1133 C.ar    1  UNL1        0.0015
     14 C         140.8276  145.4245  154.1469 C.ar    1  UNL1        0.0046
     15 C         140.7580  145.0204  155.5897 C.ar    1  UNL1        0.0547
     16 C         141.1469  143.6307  155.9989 C.ar    1  UNL1        0.0247
     17 C         140.2944  146.0340  156.5935 C.2     1  UNL1        0.2459
     18 O         140.0488  147.1953  155.6764 O.2     1  UNL1       -0.2701
     19 N         139.9118  146.6655  157.8992 N.am    1  UNL1       -0.3009
     20 C         139.6514  146.8462  159.3654 C.3     1  UNL1        0.0898
     21 C         139.5416  146.5566  160.8331 C.3     1  UNL1        0.0230
     22 C         139.5942  145.8282  162.1433 C.3     1  UNL1        0.0232
     23 C         139.8036  144.7397  163.1540 C.3     1  UNL1        0.0922
     24 N         140.1470  143.4094  163.7557 N.pl3   1  UNL1       -0.2932
     25 C         140.0944  144.1378  162.4455 C.3     1  UNL1        0.0922
     26 C         139.8850  145.2262  161.4348 C.3     1  UNL1        0.0232
     27 C         140.5872  141.9810  163.8831 C.ar    1  UNL1        0.1348
     28 N         140.2822  142.3167  165.3130 N.ar    1  UNL1       -0.2090
     29 C         140.4666  141.2810  166.3823 C.ar    1  UNL1        0.2000
     30 N         140.9560  139.9096  166.0217 N.ar    1  UNL1       -0.2239
     31 C         141.2610  139.5740  164.5919 C.ar    1  UNL1        0.0857
     32 C         141.8060  138.0934  164.0818 C.ar    1  UNL1        0.0192
     33 C         142.1398  137.6526  162.6875 C.ar    1  UNL1        0.0016
     34 C         141.9910  138.6100  161.5424 C.ar    1  UNL1        0.0017
     35 C         141.5620  139.4439  162.7132 C.ar    1  UNL1        0.0043
     36 C         141.0766  140.6097  163.5226 C.ar    1  UNL1        0.0493
     37 H         142.6946  139.0822  155.3494 H       1  UNL1        0.1739
     38 H         139.6679  147.5640  157.5793 H       1  UNL1        0.1497
     39 C         143.8689  135.5321  155.3753 C.3     1  UNL1        0.2543
     40 O         143.3516  136.9202  155.6107 O.3     1  UNL1       -0.4553
@<TRIPOS>BOND
     1    39    40    1
     2    40     1    1
     3     1     2   ar
     4     2     3   ar
     5     3     4   ar
     6     4     5   ar
     7     5     6   ar
     8     6     7    1
     9     7     8    1
    10     8     9    2
    11     8    10    2
    12     8    11    1
    13    11    12   ar
    14    12    13   ar
    15    13    14   ar
    16    14    15   ar
    17    15    16   ar
    18    15    17    1
    19    17    18    2
    20    17    19   am
    21    19    20    1
    22    20    21    1
    23    21    22    1
    24    22    23    1
    25    23    24    1
    26    24    25    1
    27    25    26    1
    28    24    27    1
    29    27    28   ar
    30    28    29   ar
    31    29    30   ar
    32    30    31   ar
    33    31    32   ar
    34    32    33   ar
    35    33    34   ar
    36    34    35   ar
    37    35    36   ar
    38     6     1   ar
    39    16    11   ar
    40    26    21    1
    41    36    27   ar
    42    34     4    1
    43    36    31   ar
    44     7    37    1
    45    19    38    1
@<TRIPOS>MOLECULE
*****
 40 45 0 0 0
SMALL
GASTEIGER

@<TRIPOS>ATOM
      1 C         142.3157  135.8360  156.4395 C.ar    1  UNL1        0.2400
      2 N         143.0216  135.2319  157.6171 N.ar    1  UNL1       -0.2090
      3 C         143.2924  136.0628  158.8363 C.ar    1  UNL1        0.1021
      4 C         142.9929  137.5292  159.2107 C.ar    1  UNL1        0.0207
      5 C         142.5083  137.1639  157.8390 C.ar    1  UNL1        0.0221
      6 C         141.8805  137.2708  156.4809 C.ar    1  UNL1        0.1178
      7 N         141.1775  137.8385  155.2836 N.pl3   1  UNL1       -0.2104
      8 S         140.4755  138.8055  154.3769 S.O2    1  UNL1        0.0737
      9 O         140.6475  137.4388  153.7831 O.2     1  UNL1       -0.1499
     10 O         139.9116  138.6744  152.9932 O.2     1  UNL1       -0.1499
     11 C         139.7573  140.4137  153.8965 C.ar    1  UNL1        0.1253
     12 C         139.1594  140.4016  152.5209 C.ar    1  UNL1        0.0202
     13 C         138.5253  141.6433  151.9678 C.ar    1  UNL1        0.0015
     14 C         138.4890  142.8972  152.7904 C.ar    1  UNL1        0.0046
     15 C         139.0869  142.9092  154.1660 C.ar    1  UNL1        0.0547
     16 C         139.7210  141.6675  154.7190 C.ar    1  UNL1        0.0247
     17 C         139.0310  144.1821  154.9576 C.2     1  UNL1        0.2459
     18 O         138.3214  145.0576  153.9676 O.2     1  UNL1       -0.2701
     19 N         139.2087  145.1669  156.0750 N.am    1  UNL1       -0.3009
     20 C         139.6007  145.7567  157.3973 C.3     1  UNL1        0.0898
     21 C         140.1646  145.8877  158.7812 C.3     1  UNL1        0.0230
     22 C         140.8392  145.5457  160.0765 C.3     1  UNL1        0.0232
     23 C         141.5515  144.7677  161.1430 C.3     1  UNL1        0.0922
     24 N         142.2241  143.6382  161.8652 N.pl3   1  UNL1       -0.2932
     25 C         141.5495  143.9802  160.5698 C.3     1  UNL1        0.0922
     26 C         140.8373  144.7581  159.5033 C.3     1  UNL1        0.0232
     27 C         142.7844  142.2793  162.1647 C.ar    1  UNL1        0.1348
     28 N         143.1086  143.0102  163.4338 N.ar    1  UNL1       -0.2090
     29 C         143.8200  142.3002  164.5474 C.ar    1  UNL1        0.2000
     30 N         144.2071  140.8594  164.3918 N.ar    1  UNL1       -0.2239
     31 C         143.8828  140.1285  163.1226 C.ar    1  UNL1        0.0857
     32 C         144.2630  138.5389  162.8438 C.ar    1  UNL1        0.0192
     33 C         143.9882  137.7153  161.6206 C.ar    1  UNL1        0.0016
     34 C         143.2817  138.3274  160.4475 C.ar    1  UNL1        0.0017
     35 C         143.3435  139.4718  161.4153 C.ar    1  UNL1        0.0043
     36 C         143.1715  140.8385  162.0091 C.ar    1  UNL1        0.0493
     37 H         141.1756  137.0425  154.7043 H       1  UNL1        0.1739
     38 H         138.7814  145.9542  155.6667 H       1  UNL1        0.1497
     39 C         141.4915  133.6185  155.3655 C.3     1  UNL1        0.2543
     40 O         142.0449  135.0050  155.2203 O.3     1  UNL1       -0.4553
@<TRIPOS>BOND
     1    39    40    1
     2    40     1    1
     3     1     2   ar
     4     2     3   ar
     5     3     4   ar
     6     4     5   ar
     7     5     6   ar
     8     6     7    1
     9     7     8    1
    10     8     9    2
    11     8    10    2
    12     8    11    1
    13    11    12   ar
    14    12    13   ar
    15    13    14   ar
    16    14    15   ar
    17    15    16   ar
    18    15    17    1
    19    17    18    2
    20    17    19   am
    21    19    20    1
    22    20    21    1
    23    21    22    1
    24    22    23    1
    25    23    24    1
    26    24    25    1
    27    25    26    1
    28    24    27    1
    29    27    28   ar
    30    28    29   ar
    31    29    30   ar
    32    30    31   ar
    33    31    32   ar
    34    32    33   ar
    35    33    34   ar
    36    34    35   ar
    37    35    36   ar
    38     6     1   ar
    39    16    11   ar
    40    26    21    1
    41    36    27   ar
    42    34     4    1
    43    36    31   ar
    44     7    37    1
    45    19    38    1
@<TRIPOS>MOLECULE
*****
 40 45 0 0 0
SMALL
GASTEIGER

@<TRIPOS>ATOM
      1 C         139.5301  145.5169  156.5925 C.ar    1  UNL1        0.2400
      2 N         139.7552  146.3947  157.7879 N.ar    1  UNL1       -0.2090
      3 C         140.4115  145.8360  159.0157 C.ar    1  UNL1        0.1021
      4 C         140.9651  144.4440  159.3846 C.ar    1  UNL1        0.0207
      5 C         140.3922  144.4987  157.9994 C.ar    1  UNL1        0.0221
      6 C         139.9612  144.0806  156.6248 C.ar    1  UNL1        0.1178
      7 N         139.7189  143.2350  155.4099 N.pl3   1  UNL1       -0.2104
      8 S         139.6914  142.0535  154.4861 S.O2    1  UNL1        0.0737
      9 O         139.0922  143.2948  153.8947 O.2     1  UNL1       -0.1499
     10 O         139.1825  141.8693  153.0872 O.2     1  UNL1       -0.1499
     11 C         139.9954  140.3232  153.9893 C.ar    1  UNL1        0.1253
     12 C         139.5238  140.0210  152.5978 C.ar    1  UNL1        0.0202
     13 C         139.6966  138.6435  152.0300 C.ar    1  UNL1        0.0015
     14 C         140.3409  137.5681  152.8537 C.ar    1  UNL1        0.0046
     15 C         140.8124  137.8703  154.2452 C.ar    1  UNL1        0.0547
     16 C         140.6397  139.2478  154.8130 C.ar    1  UNL1        0.0247
     17 C         141.4517  136.7686  155.0374 C.2     1  UNL1        0.2459
     18 O         141.3693  135.6602  154.0301 O.2     1  UNL1       -0.2701
     19 N         142.1181  136.0317  156.1612 N.am    1  UNL1       -0.3009
     20 C         142.7394  135.7396  157.4949 C.3     1  UNL1        0.0898
     21 C         143.2483  135.9239  158.8939 C.3     1  UNL1        0.0230
     22 C         143.5896  136.5644  160.2066 C.3     1  UNL1        0.0232
     23 C         143.7264  137.5921  161.2907 C.3     1  UNL1        0.0922
     24 N         143.6438  138.8952  162.0288 N.pl3   1  UNL1       -0.2932
     25 C         143.3025  138.2546  160.7161 C.3     1  UNL1        0.0922
     26 C         143.1657  137.2271  159.6320 C.3     1  UNL1        0.0232
     27 C         143.3507  140.3329  162.3409 C.ar    1  UNL1        0.1348
     28 N         143.9950  139.8865  163.6199 N.ar    1  UNL1       -0.2090
     29 C         144.1675  140.8563  164.7511 C.ar    1  UNL1        0.2000
     30 N         143.6958  142.2726  164.6033 N.ar    1  UNL1       -0.2239
     31 C         143.0516  142.7189  163.3244 C.ar    1  UNL1        0.0857
     32 C         142.4947  144.2570  163.0530 C.ar    1  UNL1        0.0192
     33 C         141.8391  144.8073  161.8212 C.ar    1  UNL1        0.0016
     34 C         141.6179  143.9224  160.6303 C.ar    1  UNL1        0.0017
     35 C         142.2798  142.9905  161.6016 C.ar    1  UNL1        0.0043
     36 C         142.8791  141.7491  162.1932 C.ar    1  UNL1        0.0493
     37 H         139.2904  143.9046  154.8292 H       1  UNL1        0.1739
     38 H         142.2080  135.1451  155.7428 H       1  UNL1        0.1497
     39 C         139.5684  147.1322  154.5580 C.3     1  UNL1        0.2543
     40 O         138.8738  146.0756  155.3649 O.3     1  UNL1       -0.4553
@<TRIPOS>BOND
     1    39    40    1
     2    40     1    1
     3     1     2   ar
     4     2     3   ar
     5     3     4   ar
     6     4     5   ar
     7     5     6   ar
     8     6     7    1
     9     7     8    1
    10     8     9    2
    11     8    10    2
    12     8    11    1
    13    11    12   ar
    14    12    13   ar
    15    13    14   ar
    16    14    15   ar
    17    15    16   ar
    18    15    17    1
    19    17    18    2
    20    17    19   am
    21    19    20    1
    22    20    21    1
    23    21    22    1
    24    22    23    1
    25    23    24    1
    26    24    25    1
    27    25    26    1
    28    24    27    1
    29    27    28   ar
    30    28    29   ar
    31    29    30   ar
    32    30    31   ar
    33    31    32   ar
    34    32    33   ar
    35    33    34   ar
    36    34    35   ar
    37    35    36   ar
    38     6     1   ar
    39    16    11   ar
    40    26    21    1
    41    36    27   ar
    42    34     4    1
    43    36    31   ar
    44     7    37    1
    45    19    38    1
