@<TRIPOS>MOLECULE
*****
 35 39 0 0 0
SMALL
GASTEIGER

@<TRIPOS>ATOM
      1 C         143.7117  139.7409  159.0169 C.ar    1  UNL1        0.0503
      2 C         143.7766  141.1890  158.6312 C.ar    1  UNL1        0.0143
      3 C         144.0911  142.2275  159.6668 C.ar    1  UNL1       -0.0029
      4 C         144.3407  141.8180  161.0881 C.ar    1  UNL1       -0.0208
      5 C         144.2757  140.3699  161.4738 C.ar    1  UNL1       -0.0029
      6 C         143.9612  139.3314  160.4381 C.ar    1  UNL1        0.0143
      7 C         142.0161  138.1233  157.8950 C.2     1  UNL1        0.2313
      8 O         140.9495  138.5830  158.8442 O.2     1  UNL1       -0.2744
      9 N         143.3972  138.7022  157.9813 N.am    1  UNL1       -0.2836
     10 H         144.0972  138.4005  157.3583 H       1  UNL1        0.1549
     11 C         144.5527  132.5412  156.5357 C.3     1  UNL1        0.0594
     12 C         143.5863  133.6754  156.3630 C.ar    1  UNL1        0.0879
     13 N         143.5398  134.9274  157.1878 N.ar    1  UNL1       -0.2469
     14 C         142.4215  135.7825  156.6698 C.ar    1  UNL1        0.0695
     15 C         141.7769  135.0589  155.5249 C.ar    1  UNL1        0.0224
     16 S         142.4968  133.7567  155.3353 S.2     1  UNL1       -0.0755
     17 C         140.6586  135.9140  155.0069 C.3     1  UNL1        0.0351
     18 C         140.6121  137.1659  155.8317 C.3     1  UNL1        0.0204
     19 C         141.7016  137.0847  156.8594 C.3     1  UNL1        0.1173
     20 C         144.6551  142.8566  162.1237 C.3     1  UNL1        0.0420
     21 C         143.5449  143.6275  162.7741 C.3     1  UNL1        0.0585
     22 C         143.6501  145.0084  163.3504 C.3     1  UNL1        0.0175
     23 C         142.3046  145.3870  163.8949 C.3     1  UNL1        0.0199
     24 C         141.3680  144.2402  163.6553 C.3     1  UNL1        0.0856
     25 N         142.1345  143.1527  162.9626 N.3     1  UNL1       -0.2971
     26 H         141.7117  142.9550  162.0556 H       1  UNL1        0.1233
     27 C         139.9193  144.1897  164.0407 C.3     1  UNL1        0.1484
     28 O         139.2984  145.3400  164.7765 O.3     1  UNL1       -0.3786
     29 H         139.9660  146.0283  164.9229 H       1  UNL1        0.2108
     30 C         139.0914  142.9890  163.6902 C.ar    1  UNL1        0.0247
     31 C         139.0738  141.7980  164.6020 C.ar    1  UNL1        0.0012
     32 C         138.2459  140.5973  164.2515 C.ar    1  UNL1        0.0204
     33 C         137.4355  140.5875  162.9894 C.ar    1  UNL1        0.0989
     34 N         137.4531  141.7785  162.0776 N.ar    1  UNL1       -0.2426
     35 C         138.2810  142.9792  162.4281 C.ar    1  UNL1        0.0969
@<TRIPOS>BOND
     1    11    12    1
     2    12    13   ar
     3    13    14   ar
     4    14    15   ar
     5    15    16   ar
     6    15    17    1
     7    17    18    1
     8    18    19    1
     9    19     7    1
    10     7     8    2
    11     7     9   am
    12     9     1    1
    13     1     2   ar
    14     2     3   ar
    15     3     4   ar
    16     4    20    1
    17    21    20    1
    18    21    22    1
    19    22    23    1
    20    24    23    1
    21    24    27    1
    22    27    28    1
    23    27    30    1
    24    30    31   ar
    25    31    32   ar
    26    32    33   ar
    27    33    34   ar
    28    34    35   ar
    29    24    25    1
    30     4     5   ar
    31     5     6   ar
    32    16    12   ar
    33     6     1   ar
    34    19    14    1
    35    25    21    1
    36    35    30   ar
    37     9    10    1
    38    28    29    1
    39    25    26    1
@<TRIPOS>MOLECULE
*****
 35 39 0 0 0
SMALL
GASTEIGER

@<TRIPOS>ATOM
      1 C         142.9112  138.9388  159.5631 C.ar    1  UNL1        0.0503
      2 C         142.4003  140.2918  159.1650 C.ar    1  UNL1        0.0143
      3 C         142.8673  141.5150  159.8970 C.ar    1  UNL1       -0.0029
      4 C         143.8452  141.3853  161.0270 C.ar    1  UNL1       -0.0208
      5 C         144.3560  140.0323  161.4251 C.ar    1  UNL1       -0.0029
      6 C         143.8890  138.8091  160.6931 C.ar    1  UNL1        0.0143
      7 C         142.9090  137.4577  157.4285 C.2     1  UNL1        0.2313
      8 O         143.8407  138.4231  156.7578 O.2     1  UNL1       -0.2744
      9 N         142.4442  137.7156  158.8312 N.am    1  UNL1       -0.2836
     10 H         141.8326  137.0820  159.2714 H       1  UNL1        0.1549
     11 C         144.6220  131.4205  157.6709 C.3     1  UNL1        0.0594
     12 C         143.8234  132.5898  157.1761 C.ar    1  UNL1        0.0879
     13 N         143.9611  134.0103  157.6378 N.ar    1  UNL1       -0.2469
     14 C         142.9696  134.8424  156.8798 C.ar    1  UNL1        0.0695
     15 C         142.2192  133.9361  155.9494 C.ar    1  UNL1        0.0224
     16 S         142.7468  132.5440  156.1326 S.2     1  UNL1       -0.0755
     17 C         141.2277  134.7682  155.1914 C.3     1  UNL1        0.0351
     18 C         141.3655  136.1886  155.6532 C.3     1  UNL1        0.0204
     19 C         142.4420  136.2345  156.6966 C.3     1  UNL1        0.1173
     20 C         144.3122  142.6085  161.7589 C.3     1  UNL1        0.0420
     21 C         143.3510  143.3879  162.6065 C.3     1  UNL1        0.0585
     22 C         143.4825  144.8329  162.9871 C.3     1  UNL1        0.0175
     23 C         142.3023  145.1973  163.8382 C.3     1  UNL1        0.0199
     24 C         141.4414  143.9775  163.9837 C.3     1  UNL1        0.0856
     25 N         142.0895  142.8593  163.2225 N.3     1  UNL1       -0.2971
     26 H         141.4600  142.5277  162.4916 H       1  UNL1        0.1233
     27 C         140.1578  143.8913  164.7550 C.3     1  UNL1        0.1484
     28 O         139.3197  145.1189  164.9561 O.3     1  UNL1       -0.3786
     29 H         139.7477  145.8764  164.5272 H       1  UNL1        0.2108
     30 C         139.7124  142.5773  165.3252 C.ar    1  UNL1        0.0247
     31 C         140.3056  142.0771  166.6089 C.ar    1  UNL1        0.0012
     32 C         139.8601  140.7632  167.1791 C.ar    1  UNL1        0.0204
     33 C         138.8215  139.9494  166.4657 C.ar    1  UNL1        0.0989
     34 N         138.2283  140.4496  165.1820 N.ar    1  UNL1       -0.2426
     35 C         138.6738  141.7636  164.6118 C.ar    1  UNL1        0.0969
@<TRIPOS>BOND
     1    11    12    1
     2    12    13   ar
     3    13    14   ar
     4    14    15   ar
     5    15    16   ar
     6    15    17    1
     7    17    18    1
     8    18    19    1
     9    19     7    1
    10     7     8    2
    11     7     9   am
    12     9     1    1
    13     1     2   ar
    14     2     3   ar
    15     3     4   ar
    16     4    20    1
    17    21    20    1
    18    21    22    1
    19    22    23    1
    20    24    23    1
    21    24    27    1
    22    27    28    1
    23    27    30    1
    24    30    31   ar
    25    31    32   ar
    26    32    33   ar
    27    33    34   ar
    28    34    35   ar
    29    24    25    1
    30     4     5   ar
    31     5     6   ar
    32    16    12   ar
    33     6     1   ar
    34    19    14    1
    35    25    21    1
    36    35    30   ar
    37     9    10    1
    38    28    29    1
    39    25    26    1
@<TRIPOS>MOLECULE
*****
 35 39 0 0 0
SMALL
GASTEIGER

@<TRIPOS>ATOM
      1 C         142.8490  137.8434  161.8007 C.ar    1  UNL1        0.0503
      2 C         143.9529  138.6891  162.3629 C.ar    1  UNL1        0.0143
      3 C         143.8111  139.2979  163.7265 C.ar    1  UNL1       -0.0029
      4 C         142.5655  139.0610  164.5279 C.ar    1  UNL1       -0.0208
      5 C         141.4615  138.2152  163.9657 C.ar    1  UNL1       -0.0029
      6 C         141.6033  137.6064  162.6021 C.ar    1  UNL1        0.0143
      7 C         142.5544  138.0017  159.2243 C.2     1  UNL1        0.2313
      8 O         141.9765  139.3776  159.3749 O.2     1  UNL1       -0.2744
      9 N         142.9907  137.2345  160.4372 N.am    1  UNL1       -0.2836
     10 H         143.3700  136.3315  160.3383 H       1  UNL1        0.1549
     11 C         144.1376  132.2514  157.2571 C.3     1  UNL1        0.0594
     12 C         143.7283  133.6841  157.0847 C.ar    1  UNL1        0.0879
     13 N         143.4747  134.6676  158.1886 N.ar    1  UNL1       -0.2469
     14 C         143.0904  135.9762  157.5643 C.ar    1  UNL1        0.0695
     15 C         143.1064  135.8016  156.0746 C.ar    1  UNL1        0.0224
     16 S         143.5006  134.3850  155.7782 S.2     1  UNL1       -0.0755
     17 C         142.7221  137.1103  155.4503 C.3     1  UNL1        0.0351
     18 C         142.4685  138.0936  156.5542 C.3     1  UNL1        0.0204
     19 C         142.6961  137.3928  157.8607 C.3     1  UNL1        0.1173
     20 C         142.4237  139.6698  165.8914 C.3     1  UNL1        0.0420
     21 C         141.6169  140.9210  166.0739 C.3     1  UNL1        0.0585
     22 C         141.2378  141.5421  167.3856 C.3     1  UNL1        0.0175
     23 C         140.4340  142.7758  167.0992 C.3     1  UNL1        0.0199
     24 C         140.3164  142.9172  165.6105 C.3     1  UNL1        0.0856
     25 N         141.0475  141.7709  164.9769 N.3     1  UNL1       -0.2971
     26 H         141.8005  142.1244  164.3866 H       1  UNL1        0.1233
     27 C         139.5945  144.0126  164.8832 C.3     1  UNL1        0.1484
     28 O         138.7156  144.9633  165.6406 O.3     1  UNL1       -0.3786
     29 H         138.7250  144.7317  166.5825 H       1  UNL1        0.2108
     30 C         139.7515  144.1572  163.3985 C.ar    1  UNL1        0.0247
     31 C         140.8943  144.9517  162.8390 C.ar    1  UNL1        0.0012
     32 C         141.0513  145.0963  161.3543 C.ar    1  UNL1        0.0204
     33 C         140.0656  144.4466  160.4290 C.ar    1  UNL1        0.0989
     34 N         138.9229  143.6521  160.9884 N.ar    1  UNL1       -0.2426
     35 C         138.7659  143.5074  162.4732 C.ar    1  UNL1        0.0969
@<TRIPOS>BOND
     1    11    12    1
     2    12    13   ar
     3    13    14   ar
     4    14    15   ar
     5    15    16   ar
     6    15    17    1
     7    17    18    1
     8    18    19    1
     9    19     7    1
    10     7     8    2
    11     7     9   am
    12     9     1    1
    13     1     2   ar
    14     2     3   ar
    15     3     4   ar
    16     4    20    1
    17    21    20    1
    18    21    22    1
    19    22    23    1
    20    24    23    1
    21    24    27    1
    22    27    28    1
    23    27    30    1
    24    30    31   ar
    25    31    32   ar
    26    32    33   ar
    27    33    34   ar
    28    34    35   ar
    29    24    25    1
    30     4     5   ar
    31     5     6   ar
    32    16    12   ar
    33     6     1   ar
    34    19    14    1
    35    25    21    1
    36    35    30   ar
    37     9    10    1
    38    28    29    1
    39    25    26    1
@<TRIPOS>MOLECULE
*****
 35 39 0 0 0
SMALL
GASTEIGER

@<TRIPOS>ATOM
      1 C         137.9438  139.6182  160.9966 C.ar    1  UNL1        0.0503
      2 C         138.4432  138.2732  161.4343 C.ar    1  UNL1        0.0143
      3 C         138.7312  138.0153  162.8836 C.ar    1  UNL1       -0.0029
      4 C         138.5198  139.1024  163.8954 C.ar    1  UNL1       -0.0208
      5 C         138.0204  140.4474  163.4577 C.ar    1  UNL1       -0.0029
      6 C         137.7324  140.7053  162.0084 C.ar    1  UNL1        0.0143
      7 C         138.7650  140.2831  158.6231 C.2     1  UNL1        0.2313
      8 O         140.1621  140.4321  159.1483 O.2     1  UNL1       -0.2744
      9 N         137.6559  139.8761  159.5473 N.am    1  UNL1       -0.2836
     10 H         136.7389  139.7783  159.2027 H       1  UNL1        0.1549
     11 C         133.4269  140.8308  155.3602 C.3     1  UNL1        0.0594
     12 C         134.9159  140.8090  155.5402 C.ar    1  UNL1        0.0879
     13 N         135.6447  140.5825  156.8315 N.ar    1  UNL1       -0.2469
     14 C         137.1168  140.6434  156.5498 C.ar    1  UNL1        0.0695
     15 C         137.2978  140.9075  155.0844 C.ar    1  UNL1        0.0224
     16 S         135.9376  141.0099  154.4604 S.2     1  UNL1       -0.0755
     17 C         138.7698  140.9684  154.8027 C.3     1  UNL1        0.0351
     18 C         139.4986  140.7419  156.0940 C.3     1  UNL1        0.0204
     19 C         138.4770  140.5411  157.1738 C.3     1  UNL1        0.1173
     20 C         138.8078  138.8444  165.3447 C.3     1  UNL1        0.0420
     21 C         139.7508  139.7394  166.0928 C.3     1  UNL1        0.0585
     22 C         139.5680  140.2365  167.4962 C.3     1  UNL1        0.0175
     23 C         140.7464  141.0987  167.8396 C.3     1  UNL1        0.0199
     24 C         141.6575  141.1345  166.6485 C.3     1  UNL1        0.0856
     25 N         141.0421  140.2944  165.5689 N.3     1  UNL1       -0.2971
     26 H         141.6724  139.5311  165.3227 H       1  UNL1        0.1233
     27 C         142.9558  141.8796  166.5537 C.3     1  UNL1        0.1484
     28 O         143.5167  142.5661  167.7638 O.3     1  UNL1       -0.3786
     29 H         142.9210  142.4311  168.5173 H       1  UNL1        0.2108
     30 C         143.6934  141.9382  165.2489 C.ar    1  UNL1        0.0247
     31 C         144.3896  140.7171  164.7254 C.ar    1  UNL1        0.0012
     32 C         145.1271  140.7757  163.4205 C.ar    1  UNL1        0.0204
     33 C         145.1684  142.0554  162.6391 C.ar    1  UNL1        0.0989
     34 N         144.4722  143.2765  163.1626 N.ar    1  UNL1       -0.2426
     35 C         143.7346  143.2179  164.4675 C.ar    1  UNL1        0.0969
@<TRIPOS>BOND
     1    11    12    1
     2    12    13   ar
     3    13    14   ar
     4    14    15   ar
     5    15    16   ar
     6    15    17    1
     7    17    18    1
     8    18    19    1
     9    19     7    1
    10     7     8    2
    11     7     9   am
    12     9     1    1
    13     1     2   ar
    14     2     3   ar
    15     3     4   ar
    16     4    20    1
    17    21    20    1
    18    21    22    1
    19    22    23    1
    20    24    23    1
    21    24    27    1
    22    27    28    1
    23    27    30    1
    24    30    31   ar
    25    31    32   ar
    26    32    33   ar
    27    33    34   ar
    28    34    35   ar
    29    24    25    1
    30     4     5   ar
    31     5     6   ar
    32    16    12   ar
    33     6     1   ar
    34    19    14    1
    35    25    21    1
    36    35    30   ar
    37     9    10    1
    38    28    29    1
    39    25    26    1
@<TRIPOS>MOLECULE
*****
 35 39 0 0 0
SMALL
GASTEIGER

@<TRIPOS>ATOM
      1 C         144.4732  142.4020  162.0227 C.ar    1  UNL1        0.0503
      2 C         143.7150  143.5820  162.5542 C.ar    1  UNL1        0.0143
      3 C         143.3831  143.6642  164.0148 C.ar    1  UNL1       -0.0029
      4 C         143.8095  142.5664  164.9438 C.ar    1  UNL1       -0.0208
      5 C         144.5677  141.3864  164.4123 C.ar    1  UNL1       -0.0029
      6 C         144.8996  141.3042  162.9517 C.ar    1  UNL1        0.0143
      7 C         143.9511  141.4963  159.6442 C.2     1  UNL1        0.2313
      8 O         142.7652  140.7553  160.1868 O.2     1  UNL1       -0.2744
      9 N         144.8052  142.3197  160.5622 N.am    1  UNL1       -0.2836
     10 H         145.5835  142.8061  160.2062 H       1  UNL1        0.1549
     11 C         143.3330  136.9333  155.3736 C.3     1  UNL1        0.0594
     12 C         143.7149  138.3001  155.8594 C.ar    1  UNL1        0.0879
     13 N         143.5566  138.8142  157.2596 N.ar    1  UNL1       -0.2469
     14 C         144.0660  140.2246  157.2959 C.ar    1  UNL1        0.0695
     15 C         144.5391  140.5822  155.9181 C.ar    1  UNL1        0.0224
     16 S         144.3221  139.3928  155.0303 S.2     1  UNL1       -0.0755
     17 C         145.0485  141.9926  155.9544 C.3     1  UNL1        0.0351
     18 C         144.8902  142.5066  157.3546 C.3     1  UNL1        0.0204
     19 C         144.2830  141.4141  158.1837 C.3     1  UNL1        0.1173
     20 C         143.4775  142.6487  166.4043 C.3     1  UNL1        0.0420
     21 C         142.2226  142.0133  166.9252 C.3     1  UNL1        0.0585
     22 C         141.6015  142.2596  168.2681 C.3     1  UNL1        0.0175
     23 C         140.3635  141.4185  168.3675 C.3     1  UNL1        0.0199
     24 C         140.2195  140.6523  167.0860 C.3     1  UNL1        0.0856
     25 N         141.3685  141.0199  166.1946 N.3     1  UNL1       -0.2971
     26 H         141.0178  141.4339  165.3309 H       1  UNL1        0.1233
     27 C         139.1196  139.6879  166.7543 C.3     1  UNL1        0.1484
     28 O         138.3051  139.0723  167.8532 O.3     1  UNL1       -0.3786
     29 H         138.6171  139.4019  168.7104 H       1  UNL1        0.2108
     30 C         138.8343  139.3390  165.3236 C.ar    1  UNL1        0.0247
     31 C         139.2210  137.9921  164.7885 C.ar    1  UNL1        0.0012
     32 C         138.9356  137.6432  163.3579 C.ar    1  UNL1        0.0204
     33 C         138.2636  138.6412  162.4621 C.ar    1  UNL1        0.0989
     34 N         137.8770  139.9882  162.9972 N.ar    1  UNL1       -0.2426
     35 C         138.1623  140.3370  164.4279 C.ar    1  UNL1        0.0969
@<TRIPOS>BOND
     1    11    12    1
     2    12    13   ar
     3    13    14   ar
     4    14    15   ar
     5    15    16   ar
     6    15    17    1
     7    17    18    1
     8    18    19    1
     9    19     7    1
    10     7     8    2
    11     7     9   am
    12     9     1    1
    13     1     2   ar
    14     2     3   ar
    15     3     4   ar
    16     4    20    1
    17    21    20    1
    18    21    22    1
    19    22    23    1
    20    24    23    1
    21    24    27    1
    22    27    28    1
    23    27    30    1
    24    30    31   ar
    25    31    32   ar
    26    32    33   ar
    27    33    34   ar
    28    34    35   ar
    29    24    25    1
    30     4     5   ar
    31     5     6   ar
    32    16    12   ar
    33     6     1   ar
    34    19    14    1
    35    25    21    1
    36    35    30   ar
    37     9    10    1
    38    28    29    1
    39    25    26    1
@<TRIPOS>MOLECULE
*****
 35 39 0 0 0
SMALL
GASTEIGER

@<TRIPOS>ATOM
      1 C         144.4633  142.8455  161.7674 C.ar    1  UNL1        0.0503
      2 C         145.0699  141.7673  162.6157 C.ar    1  UNL1        0.0143
      3 C         144.9404  141.8259  164.1089 C.ar    1  UNL1       -0.0029
      4 C         144.2043  142.9626  164.7539 C.ar    1  UNL1       -0.0208
      5 C         143.5977  144.0408  163.9057 C.ar    1  UNL1       -0.0029
      6 C         143.7272  143.9822  162.4124 C.ar    1  UNL1        0.0143
      7 C         143.4112  142.4038  159.4333 C.2     1  UNL1        0.2313
      8 O         142.1001  142.0792  160.0857 O.2     1  UNL1       -0.2744
      9 N         144.5928  142.7869  160.2741 N.am    1  UNL1       -0.2836
     10 H         145.4533  143.0000  159.8459 H       1  UNL1        0.1549
     11 C         148.3610  142.0276  155.5863 C.3     1  UNL1        0.0594
     12 C         146.9014  142.1106  155.9220 C.ar    1  UNL1        0.0879
     13 N         146.3170  142.1874  157.3014 N.ar    1  UNL1       -0.2469
     14 C         144.8244  142.2557  157.1692 C.ar    1  UNL1        0.0695
     15 C         144.4863  142.2211  155.7082 C.ar    1  UNL1        0.0224
     16 S         145.7700  142.1315  154.9375 S.2     1  UNL1       -0.0755
     17 C         142.9937  142.2893  155.5761 C.3     1  UNL1        0.0351
     18 C         142.4093  142.3661  156.9554 C.3     1  UNL1        0.0204
     19 C         143.5407  142.3453  157.9400 C.3     1  UNL1        0.1173
     20 C         144.0748  143.0211  166.2472 C.3     1  UNL1        0.0420
     21 C         143.0342  142.1945  166.9428 C.3     1  UNL1        0.0585
     22 C         142.9859  141.8907  168.4109 C.3     1  UNL1        0.0175
     23 C         141.7810  141.0350  168.6678 C.3     1  UNL1        0.0199
     24 C         141.0846  140.8100  167.3584 C.3     1  UNL1        0.0856
     25 N         141.8590  141.5266  166.2923 N.3     1  UNL1       -0.2971
     26 H         141.2667  142.2265  165.8455 H       1  UNL1        0.1233
     27 C         139.8333  140.0090  167.1516 C.3     1  UNL1        0.1484
     28 O         138.9842  139.6272  168.3277 O.3     1  UNL1       -0.3786
     29 H         139.3832  139.9745  169.1409 H       1  UNL1        0.2108
     30 C         139.4312  139.5898  165.7687 C.ar    1  UNL1        0.0247
     31 C         140.0015  138.3390  165.1685 C.ar    1  UNL1        0.0012
     32 C         139.5994  137.9198  163.7856 C.ar    1  UNL1        0.0204
     33 C         138.6270  138.7513  163.0027 C.ar    1  UNL1        0.0989
     34 N         138.0568  140.0022  163.6028 N.ar    1  UNL1       -0.2426
     35 C         138.4589  140.4214  164.9858 C.ar    1  UNL1        0.0969
@<TRIPOS>BOND
     1    11    12    1
     2    12    13   ar
     3    13    14   ar
     4    14    15   ar
     5    15    16   ar
     6    15    17    1
     7    17    18    1
     8    18    19    1
     9    19     7    1
    10     7     8    2
    11     7     9   am
    12     9     1    1
    13     1     2   ar
    14     2     3   ar
    15     3     4   ar
    16     4    20    1
    17    21    20    1
    18    21    22    1
    19    22    23    1
    20    24    23    1
    21    24    27    1
    22    27    28    1
    23    27    30    1
    24    30    31   ar
    25    31    32   ar
    26    32    33   ar
    27    33    34   ar
    28    34    35   ar
    29    24    25    1
    30     4     5   ar
    31     5     6   ar
    32    16    12   ar
    33     6     1   ar
    34    19    14    1
    35    25    21    1
    36    35    30   ar
    37     9    10    1
    38    28    29    1
    39    25    26    1
@<TRIPOS>MOLECULE
*****
 35 39 0 0 0
SMALL
GASTEIGER

@<TRIPOS>ATOM
      1 C         142.8511  137.7664  160.7169 C.ar    1  UNL1        0.0503
      2 C         141.5332  138.1711  161.3082 C.ar    1  UNL1        0.0143
      3 C         141.4904  139.1430  162.4499 C.ar    1  UNL1       -0.0029
      4 C         142.7652  139.7102  163.0004 C.ar    1  UNL1       -0.0208
      5 C         144.0830  139.3055  162.4092 C.ar    1  UNL1       -0.0029
      6 C         144.1259  138.3336  161.2674 C.ar    1  UNL1        0.0143
      7 C         142.7467  137.2862  158.1657 C.2     1  UNL1        0.2313
      8 O         142.5563  138.7498  157.8981 O.2     1  UNL1       -0.2744
      9 N         142.8940  136.7945  159.5751 N.am    1  UNL1       -0.2836
     10 H         143.0190  135.8339  159.7508 H       1  UNL1        0.1549
     11 C         144.7000  131.3363  157.6920 C.3     1  UNL1        0.0594
     12 C         144.1193  132.6227  157.1840 C.ar    1  UNL1        0.0879
     13 N         143.8941  133.8674  157.9902 N.ar    1  UNL1       -0.2469
     14 C         143.2975  134.9043  157.0851 C.ar    1  UNL1        0.0695
     15 C         143.1541  134.3003  155.7196 C.ar    1  UNL1        0.0224
     16 S         143.6620  132.8902  155.7807 S.2     1  UNL1       -0.0755
     17 C         142.5575  135.3372  154.8145 C.3     1  UNL1        0.0351
     18 C         142.3323  136.5818  155.6207 C.3     1  UNL1        0.0204
     19 C         142.7897  136.3143  157.0240 C.3     1  UNL1        0.1173
     20 C         142.7222  140.6821  164.1422 C.3     1  UNL1        0.0420
     21 C         142.8215  140.1854  165.5541 C.3     1  UNL1        0.0585
     22 C         143.1439  138.7820  165.9743 C.3     1  UNL1        0.0175
     23 C         143.1375  138.7342  167.4736 C.3     1  UNL1        0.0199
     24 C         142.8112  140.1079  167.9799 C.3     1  UNL1        0.0856
     25 N         142.6159  141.0049  166.7935 N.3     1  UNL1       -0.2971
     26 H         143.2931  141.7672  166.8208 H       1  UNL1        0.1233
     27 C         142.6998  140.5135  169.4197 C.3     1  UNL1        0.1484
     28 O         143.5831  139.8739  170.4496 O.3     1  UNL1       -0.3786
     29 H         144.1629  139.2253  170.0204 H       1  UNL1        0.2108
     30 C         141.7051  141.5588  169.8296 C.ar    1  UNL1        0.0247
     31 C         140.3020  141.1618  170.1813 C.ar    1  UNL1        0.0012
     32 C         139.3073  142.2071  170.5913 C.ar    1  UNL1        0.0204
     33 C         139.7156  143.6492  170.6494 C.ar    1  UNL1        0.0989
     34 N         141.1187  144.0461  170.2977 N.ar    1  UNL1       -0.2426
     35 C         142.1134  143.0009  169.8878 C.ar    1  UNL1        0.0969
@<TRIPOS>BOND
     1    11    12    1
     2    12    13   ar
     3    13    14   ar
     4    14    15   ar
     5    15    16   ar
     6    15    17    1
     7    17    18    1
     8    18    19    1
     9    19     7    1
    10     7     8    2
    11     7     9   am
    12     9     1    1
    13     1     2   ar
    14     2     3   ar
    15     3     4   ar
    16     4    20    1
    17    21    20    1
    18    21    22    1
    19    22    23    1
    20    24    23    1
    21    24    27    1
    22    27    28    1
    23    27    30    1
    24    30    31   ar
    25    31    32   ar
    26    32    33   ar
    27    33    34   ar
    28    34    35   ar
    29    24    25    1
    30     4     5   ar
    31     5     6   ar
    32    16    12   ar
    33     6     1   ar
    34    19    14    1
    35    25    21    1
    36    35    30   ar
    37     9    10    1
    38    28    29    1
    39    25    26    1
@<TRIPOS>MOLECULE
*****
 35 39 0 0 0
SMALL
GASTEIGER

@<TRIPOS>ATOM
      1 C         139.4453  138.8057  159.7779 C.ar    1  UNL1        0.0503
      2 C         140.9368  138.6553  159.8318 C.ar    1  UNL1        0.0143
      3 C         141.5986  138.1913  161.0955 C.ar    1  UNL1       -0.0029
      4 C         140.7689  137.8776  162.3052 C.ar    1  UNL1       -0.0208
      5 C         139.2775  138.0280  162.2513 C.ar    1  UNL1       -0.0029
      6 C         138.6157  138.4921  160.9876 C.ar    1  UNL1        0.0143
      7 C         138.4675  140.7236  158.3234 C.2     1  UNL1        0.2313
      8 O         138.8134  141.7134  159.3961 O.2     1  UNL1       -0.2744
      9 N         138.7835  139.2698  158.5144 N.am    1  UNL1       -0.2836
     10 H         138.5565  138.6201  157.8103 H       1  UNL1        0.1549
     11 C         132.6655  140.0080  156.0287 C.3     1  UNL1        0.0594
     12 C         134.0838  140.4959  156.0152 C.ar    1  UNL1        0.0879
     13 N         135.1077  140.2597  157.0856 N.ar    1  UNL1       -0.2469
     14 C         136.3841  140.9234  156.6608 C.ar    1  UNL1        0.0695
     15 C         136.1490  141.5698  155.3278 C.ar    1  UNL1        0.0224
     16 S         134.7274  141.3056  154.9288 S.2     1  UNL1       -0.0755
     17 C         137.4253  142.2336  154.9031 C.3     1  UNL1        0.0351
     18 C         138.4491  141.9974  155.9735 C.3     1  UNL1        0.0204
     19 C         137.8057  141.1877  157.0599 C.3     1  UNL1        0.1173
     20 C         141.4308  137.4136  163.5688 C.3     1  UNL1        0.0420
     21 C         141.9461  138.4169  164.5577 C.3     1  UNL1        0.0585
     22 C         142.8114  138.1191  165.7461 C.3     1  UNL1        0.0175
     23 C         143.0867  139.4123  166.4547 C.3     1  UNL1        0.0199
     24 C         142.3914  140.5092  165.7041 C.3     1  UNL1        0.0856
     25 N         141.6865  139.8940  164.5317 N.3     1  UNL1       -0.2971
     26 H         142.0446  140.2932  163.6640 H       1  UNL1        0.1233
     27 C         142.3996  141.9656  166.0630 C.3     1  UNL1        0.1484
     28 O         143.3735  142.4819  167.0804 O.3     1  UNL1       -0.3786
     29 H         143.9204  141.7495  167.4052 H       1  UNL1        0.2108
     30 C         141.4340  142.9058  165.4045 C.ar    1  UNL1        0.0247
     31 C         140.1046  143.1832  166.0415 C.ar    1  UNL1        0.0012
     32 C         139.1390  144.1234  165.3830 C.ar    1  UNL1        0.0204
     33 C         139.5027  144.7861  164.0874 C.ar    1  UNL1        0.0989
     34 N         140.8320  144.5087  163.4504 N.ar    1  UNL1       -0.2426
     35 C         141.7977  143.5685  164.1089 C.ar    1  UNL1        0.0969
@<TRIPOS>BOND
     1    11    12    1
     2    12    13   ar
     3    13    14   ar
     4    14    15   ar
     5    15    16   ar
     6    15    17    1
     7    17    18    1
     8    18    19    1
     9    19     7    1
    10     7     8    2
    11     7     9   am
    12     9     1    1
    13     1     2   ar
    14     2     3   ar
    15     3     4   ar
    16     4    20    1
    17    21    20    1
    18    21    22    1
    19    22    23    1
    20    24    23    1
    21    24    27    1
    22    27    28    1
    23    27    30    1
    24    30    31   ar
    25    31    32   ar
    26    32    33   ar
    27    33    34   ar
    28    34    35   ar
    29    24    25    1
    30     4     5   ar
    31     5     6   ar
    32    16    12   ar
    33     6     1   ar
    34    19    14    1
    35    25    21    1
    36    35    30   ar
    37     9    10    1
    38    28    29    1
    39    25    26    1
@<TRIPOS>MOLECULE
*****
 35 39 0 0 0
SMALL
GASTEIGER

@<TRIPOS>ATOM
      1 C         139.1561  139.1001  159.7734 C.ar    1  UNL1        0.0503
      2 C         138.3522  138.7480  160.9898 C.ar    1  UNL1        0.0143
      3 C         139.0360  138.2042  162.2091 C.ar    1  UNL1       -0.0029
      4 C         140.5237  138.0125  162.2120 C.ar    1  UNL1       -0.0208
      5 C         141.3276  138.3646  160.9956 C.ar    1  UNL1       -0.0029
      6 C         140.6438  138.9084  159.7763 C.ar    1  UNL1        0.0143
      7 C         138.1435  141.1048  158.4673 C.2     1  UNL1        0.2313
      8 O         138.4983  142.0220  159.6000 O.2     1  UNL1       -0.2744
      9 N         138.4724  139.6439  158.5540 N.am    1  UNL1       -0.2836
     10 H         138.2395  139.0420  157.8106 H       1  UNL1        0.1549
     11 C         139.0828  146.2399  154.9758 C.3     1  UNL1        0.0594
     12 C         138.3996  144.9605  155.3585 C.ar    1  UNL1        0.0879
     13 N         138.7592  144.0822  156.5201 N.ar    1  UNL1       -0.2469
     14 C         137.8187  142.9137  156.5263 C.ar    1  UNL1        0.0695
     15 C         136.8779  143.0698  155.3686 C.ar    1  UNL1        0.0224
     16 S         137.2369  144.3348  154.6469 S.2     1  UNL1       -0.0755
     17 C         135.9374  141.9012  155.3748 C.3     1  UNL1        0.0351
     18 C         136.2971  141.0230  156.5363 C.3     1  UNL1        0.0204
     19 C         137.4597  141.6486  157.2480 C.3     1  UNL1        0.1173
     20 C         141.2074  137.4687  163.4314 C.3     1  UNL1        0.0420
     21 C         141.7753  138.4074  164.4542 C.3     1  UNL1        0.0585
     22 C         142.7639  138.0517  165.5248 C.3     1  UNL1        0.0175
     23 C         143.0538  139.2912  166.3184 C.3     1  UNL1        0.0199
     24 C         142.2445  140.4129  165.7382 C.3     1  UNL1        0.0856
     25 N         141.4543  139.8668  164.5861 N.3     1  UNL1       -0.2971
     26 H         141.7095  140.3562  163.7284 H       1  UNL1        0.1233
     27 C         142.2282  141.8317  166.2248 C.3     1  UNL1        0.1484
     28 O         143.0651  142.2297  167.4043 O.3     1  UNL1       -0.3786
     29 H         143.5515  141.4568  167.7311 H       1  UNL1        0.2108
     30 C         141.3750  142.8524  165.5318 C.ar    1  UNL1        0.0247
     31 C         140.0004  143.1569  166.0493 C.ar    1  UNL1        0.0012
     32 C         139.1472  144.1776  165.3563 C.ar    1  UNL1        0.0204
     33 C         139.6686  144.8939  164.1460 C.ar    1  UNL1        0.0989
     34 N         141.0432  144.5895  163.6285 N.ar    1  UNL1       -0.2426
     35 C         141.8964  143.5687  164.3215 C.ar    1  UNL1        0.0969
@<TRIPOS>BOND
     1    11    12    1
     2    12    13   ar
     3    13    14   ar
     4    14    15   ar
     5    15    16   ar
     6    15    17    1
     7    17    18    1
     8    18    19    1
     9    19     7    1
    10     7     8    2
    11     7     9   am
    12     9     1    1
    13     1     2   ar
    14     2     3   ar
    15     3     4   ar
    16     4    20    1
    17    21    20    1
    18    21    22    1
    19    22    23    1
    20    24    23    1
    21    24    27    1
    22    27    28    1
    23    27    30    1
    24    30    31   ar
    25    31    32   ar
    26    32    33   ar
    27    33    34   ar
    28    34    35   ar
    29    24    25    1
    30     4     5   ar
    31     5     6   ar
    32    16    12   ar
    33     6     1   ar
    34    19    14    1
    35    25    21    1
    36    35    30   ar
    37     9    10    1
    38    28    29    1
    39    25    26    1
