@<TRIPOS>MOLECULE
*****
 38 43 0 0 0
SMALL
GASTEIGER

@<TRIPOS>ATOM
      1 C         141.7362  138.5965  165.1720 C.ar    1  UNL1        0.1725
      2 C         142.8189  139.1340  164.2839 C.ar    1  UNL1        0.0428
      3 C         142.8083  138.8237  162.8164 C.ar    1  UNL1        0.0340
      4 C         143.8910  139.3612  161.9282 C.ar    1  UNL1        0.0477
      5 C         143.8804  139.0509  160.4607 C.ar    1  UNL1        0.0365
      6 C         142.7870  138.2030  159.8813 C.ar    1  UNL1        0.1169
      7 N         141.7043  137.6655  160.7695 N.ar    1  UNL1       -0.2421
      8 C         141.7149  137.9758  162.2370 C.ar    1  UNL1        0.0858
      9 C         140.6323  137.4383  163.1251 C.ar    1  UNL1        0.0592
     10 C         140.6429  137.7486  164.5926 C.ar    1  UNL1        0.1737
     11 C         142.7763  137.8926  158.4138 C.ar    1  UNL1        0.1624
     12 C         142.3533  138.8260  157.3183 C.ar    1  UNL1        0.0418
     13 C         142.5024  138.1046  156.0116 C.ar    1  UNL1        0.0361
     14 C         143.0176  136.7256  156.2995 C.ar    1  UNL1        0.1234
     15 C         143.3117  135.6640  155.2815 C.3     1  UNL1        0.0725
     16 O         143.1869  136.5946  157.7841 O.2     1  UNL1       -0.4562
     17 C         141.9443  140.3186  167.1061 C.3     1  UNL1        0.2526
     18 O         141.7469  138.9068  166.6395 O.3     1  UNL1       -0.4684
     19 N         144.9843  140.2091  162.5076 N.pl3   1  UNL1       -0.3339
     20 H         145.8907  139.8394  162.6127 H       1  UNL1        0.1468
     21 C         144.6968  141.6204  162.9268 C.3     1  UNL1        0.0717
     22 C         144.6725  141.9801  164.3828 C.3     1  UNL1        0.0355
     23 C         144.3849  143.3913  164.8019 C.3     1  UNL1        0.0592
     24 C         144.0688  144.8569  164.7558 C.3     1  UNL1        0.0174
     25 C         143.9307  145.2563  163.3165 C.3     1  UNL1        0.0174
     26 C         144.1616  144.0375  162.4732 C.3     1  UNL1        0.0592
     27 C         144.4334  142.6719  161.8899 C.3     1  UNL1        0.0355
     28 N         144.4423  142.8849  163.3912 N.3     1  UNL1       -0.2740
     29 C         144.5728  142.2086  162.9900 C.3     1  UNL1        0.0896
     30 O         139.5601  137.2110  165.4808 O.3     1  UNL1       -0.4723
     31 C         138.3022  138.0003  165.6916 C.3     1  UNL1        0.2070
     32 C         138.3675  139.4923  165.8323 C.3     1  UNL1        0.0646
     33 C         138.1065  140.3698  164.6441 C.3     1  UNL1        0.0759
     34 N         139.1961  141.2504  164.1082 N.3     1  UNL1       -0.2726
     35 C         139.8384  141.1355  162.7576 C.3     1  UNL1        0.0721
     36 C         140.8741  142.2145  162.6435 C.3     1  UNL1        0.0188
     37 C         140.8720  142.9963  163.9237 C.3     1  UNL1        0.0188
     38 C         139.8349  142.4004  164.8290 C.3     1  UNL1        0.0721
@<TRIPOS>BOND
     1    17    18    1
     2    18     1    1
     3     1     2   ar
     4     2     3   ar
     5     3     4   ar
     6     4    19    1
     7    19    21    1
     8    21    22    1
     9    22    23    1
    10    23    24    1
    11    24    25    1
    12    25    26    1
    13    26    27    1
    14    26    28    1
    15    28    29    1
    16     4     5   ar
    17     5     6   ar
    18     6    11    1
    19    11    12   ar
    20    12    13   ar
    21    13    14   ar
    22    14    15    1
    23    14    16   ar
    24     6     7   ar
    25     7     8   ar
    26     8     9   ar
    27     9    10   ar
    28    10    30    1
    29    30    31    1
    30    31    32    1
    31    32    33    1
    32    33    34    1
    33    34    35    1
    34    35    36    1
    35    36    37    1
    36    37    38    1
    37    10     1   ar
    38    38    34    1
    39     8     3   ar
    40    27    21    1
    41    16    11   ar
    42    28    23    1
    43    19    20    1
@<TRIPOS>MOLECULE
*****
 38 43 0 0 0
SMALL
GASTEIGER

@<TRIPOS>ATOM
      1 C         138.2151  142.6953  161.8961 C.ar    1  UNL1        0.1725
      2 C         138.5063  141.2967  162.3531 C.ar    1  UNL1        0.0428
      3 C         138.9620  141.0470  163.7603 C.ar    1  UNL1        0.0340
      4 C         139.2532  139.6482  164.2172 C.ar    1  UNL1        0.0477
      5 C         139.7089  139.3985  165.6243 C.ar    1  UNL1        0.0365
      6 C         139.8733  140.5475  166.5745 C.ar    1  UNL1        0.1169
      7 N         139.5821  141.9462  166.1175 N.ar    1  UNL1       -0.2421
      8 C         139.1264  142.1959  164.7104 C.ar    1  UNL1        0.0858
      9 C         138.8352  143.5946  164.2534 C.ar    1  UNL1        0.0592
     10 C         138.3795  143.8443  162.8463 C.ar    1  UNL1        0.1737
     11 C         140.3290  140.2978  167.9816 C.ar    1  UNL1        0.1624
     12 C         139.4560  140.2823  169.2015 C.ar    1  UNL1        0.0418
     13 C         140.3252  139.9947  170.3897 C.ar    1  UNL1        0.0361
     14 C         141.7352  139.8324  169.9043 C.ar    1  UNL1        0.1234
     15 C         142.9325  139.5350  170.7574 C.3     1  UNL1        0.0725
     16 O         141.7375  140.0197  168.4161 O.2     1  UNL1       -0.4562
     17 C         138.6037  142.4907  159.3355 C.3     1  UNL1        0.2526
     18 O         137.7594  142.9450  160.4890 O.3     1  UNL1       -0.4684
     19 N         139.0888  138.4992  163.2671 N.pl3   1  UNL1       -0.3339
     20 H         138.3446  137.8656  163.3850 H       1  UNL1        0.1468
     21 C         140.0583  138.3157  162.1372 C.3     1  UNL1        0.0717
     22 C         139.6562  138.6765  160.7379 C.3     1  UNL1        0.0355
     23 C         140.6256  138.4929  159.6081 C.3     1  UNL1        0.0592
     24 C         141.8640  138.1568  158.8313 C.3     1  UNL1        0.0174
     25 C         142.8881  137.6343  159.7949 C.3     1  UNL1        0.0174
     26 C         142.2825  137.6474  161.1671 C.3     1  UNL1        0.0592
     27 C         141.4298  137.7714  162.4067 C.3     1  UNL1        0.0355
     28 N         140.8842  138.1780  161.0517 N.3     1  UNL1       -0.2740
     29 C         140.5160  138.2055  161.7582 C.3     1  UNL1        0.0896
     30 O         138.0883  145.2430  162.3893 O.3     1  UNL1       -0.4723
     31 C         139.2051  146.1251  161.9156 C.3     1  UNL1        0.2070
     32 C         140.4325  145.5177  161.3034 C.3     1  UNL1        0.0646
     33 C         141.5990  145.1481  162.1709 C.3     1  UNL1        0.0759
     34 N         141.9607  143.7056  162.3666 N.3     1  UNL1       -0.2726
     35 C         142.4603  143.0866  163.6383 C.3     1  UNL1        0.0721
     36 C         142.6947  141.6273  163.3826 C.3     1  UNL1        0.0188
     37 C         142.3400  141.3443  161.9528 C.3     1  UNL1        0.0188
     38 C         141.8863  142.6288  161.3249 C.3     1  UNL1        0.0721
@<TRIPOS>BOND
     1    17    18    1
     2    18     1    1
     3     1     2   ar
     4     2     3   ar
     5     3     4   ar
     6     4    19    1
     7    19    21    1
     8    21    22    1
     9    22    23    1
    10    23    24    1
    11    24    25    1
    12    25    26    1
    13    26    27    1
    14    26    28    1
    15    28    29    1
    16     4     5   ar
    17     5     6   ar
    18     6    11    1
    19    11    12   ar
    20    12    13   ar
    21    13    14   ar
    22    14    15    1
    23    14    16   ar
    24     6     7   ar
    25     7     8   ar
    26     8     9   ar
    27     9    10   ar
    28    10    30    1
    29    30    31    1
    30    31    32    1
    31    32    33    1
    32    33    34    1
    33    34    35    1
    34    35    36    1
    35    36    37    1
    36    37    38    1
    37    10     1   ar
    38    38    34    1
    39     8     3   ar
    40    27    21    1
    41    16    11   ar
    42    28    23    1
    43    19    20    1
@<TRIPOS>MOLECULE
*****
 38 43 0 0 0
SMALL
GASTEIGER

@<TRIPOS>ATOM
      1 C         141.1274  143.3149  162.2029 C.ar    1  UNL1        0.1725
      2 C         140.3376  142.1009  161.8124 C.ar    1  UNL1        0.0428
      3 C         140.8915  141.1381  160.8044 C.ar    1  UNL1        0.0340
      4 C         140.1016  139.9241  160.4139 C.ar    1  UNL1        0.0477
      5 C         140.6555  138.9612  159.4059 C.ar    1  UNL1        0.0365
      6 C         141.9993  139.2123  158.7884 C.ar    1  UNL1        0.1169
      7 N         142.7891  140.4263  159.1789 N.ar    1  UNL1       -0.2421
      8 C         142.2352  141.3891  160.1869 C.ar    1  UNL1        0.0858
      9 C         143.0250  142.6031  160.5774 C.ar    1  UNL1        0.0592
     10 C         142.4711  143.5659  161.5854 C.ar    1  UNL1        0.1737
     11 C         142.5532  138.2495  157.7804 C.ar    1  UNL1        0.1624
     12 C         143.0300  138.5946  156.4006 C.ar    1  UNL1        0.0418
     13 C         143.4990  137.3308  155.7427 C.ar    1  UNL1        0.0361
     14 C         143.3122  136.2047  156.7157 C.ar    1  UNL1        0.1234
     15 C         143.6506  134.7638  156.4722 C.3     1  UNL1        0.0725
     16 O         142.7277  136.7724  157.9751 O.2     1  UNL1       -0.4562
     17 C         139.3924  145.1334  162.8605 C.3     1  UNL1        0.2526
     18 O         140.5734  144.2777  163.2109 O.3     1  UNL1       -0.4684
     19 N         138.7579  139.6730  161.0314 N.pl3   1  UNL1       -0.3339
     20 H         137.9396  139.8053  160.5003 H       1  UNL1        0.1468
     21 C         138.6610  139.2202  162.4582 C.3     1  UNL1        0.0717
     22 C         138.2104  140.1788  163.5203 C.3     1  UNL1        0.0355
     23 C         138.1134  139.7260  164.9470 C.3     1  UNL1        0.0592
     24 C         138.1647  138.8726  166.1795 C.3     1  UNL1        0.0174
     25 C         138.6291  137.5042  165.7768 C.3     1  UNL1        0.0174
     26 C         138.8648  137.5121  164.2955 C.3     1  UNL1        0.0592
     27 C         139.0147  137.8089  162.8229 C.3     1  UNL1        0.0355
     28 N         138.5461  138.8852  163.7826 N.3     1  UNL1       -0.2740
     29 C         138.6558  138.9427  162.9951 C.3     1  UNL1        0.0896
     30 O         143.2609  144.7800  161.9758 O.3     1  UNL1       -0.4723
     31 C         144.0625  144.7774  163.2437 C.3     1  UNL1        0.2070
     32 C         143.8882  143.6686  164.2389 C.3     1  UNL1        0.0646
     33 C         144.6733  142.3990  164.0924 C.3     1  UNL1        0.0759
     34 N         143.9691  141.1151  163.7672 N.3     1  UNL1       -0.2726
     35 C         142.6472  140.6703  164.3191 C.3     1  UNL1        0.0721
     36 C         142.3243  139.3309  163.7261 C.3     1  UNL1        0.0188
     37 C         143.4467  138.9479  162.8076 C.3     1  UNL1        0.0188
     38 C         144.4632  140.0506  162.8330 C.3     1  UNL1        0.0721
@<TRIPOS>BOND
     1    17    18    1
     2    18     1    1
     3     1     2   ar
     4     2     3   ar
     5     3     4   ar
     6     4    19    1
     7    19    21    1
     8    21    22    1
     9    22    23    1
    10    23    24    1
    11    24    25    1
    12    25    26    1
    13    26    27    1
    14    26    28    1
    15    28    29    1
    16     4     5   ar
    17     5     6   ar
    18     6    11    1
    19    11    12   ar
    20    12    13   ar
    21    13    14   ar
    22    14    15    1
    23    14    16   ar
    24     6     7   ar
    25     7     8   ar
    26     8     9   ar
    27     9    10   ar
    28    10    30    1
    29    30    31    1
    30    31    32    1
    31    32    33    1
    32    33    34    1
    33    34    35    1
    34    35    36    1
    35    36    37    1
    36    37    38    1
    37    10     1   ar
    38    38    34    1
    39     8     3   ar
    40    27    21    1
    41    16    11   ar
    42    28    23    1
    43    19    20    1
@<TRIPOS>MOLECULE
*****
 38 43 0 0 0
SMALL
GASTEIGER

@<TRIPOS>ATOM
      1 C         138.9411  143.0674  160.9211 C.ar    1  UNL1        0.1725
      2 C         139.2729  141.6616  160.5168 C.ar    1  UNL1        0.0428
      3 C         140.4333  141.3978  159.6037 C.ar    1  UNL1        0.0340
      4 C         140.7651  139.9918  159.1994 C.ar    1  UNL1        0.0477
      5 C         141.9255  139.7281  158.2863 C.ar    1  UNL1        0.0365
      6 C         142.7542  140.8702  157.7775 C.ar    1  UNL1        0.1169
      7 N         142.4224  142.2760  158.1817 N.ar    1  UNL1       -0.2421
      8 C         141.2620  142.5398  159.0949 C.ar    1  UNL1        0.0858
      9 C         140.9302  143.9457  159.4991 C.ar    1  UNL1        0.0592
     10 C         139.7698  144.2095  160.4123 C.ar    1  UNL1        0.1737
     11 C         143.9146  140.6064  156.8643 C.ar    1  UNL1        0.1624
     12 C         144.0801  139.4127  155.9710 C.ar    1  UNL1        0.0418
     13 C         145.3811  139.5586  155.2388 C.ar    1  UNL1        0.0361
     14 C         146.0197  140.8424  155.6795 C.ar    1  UNL1        0.1234
     15 C         147.3338  141.3835  155.1998 C.3     1  UNL1        0.0725
     16 O         145.1134  141.4899  156.6841 O.2     1  UNL1       -0.4562
     17 C         137.5598  142.4621  163.0366 C.3     1  UNL1        0.2526
     18 O         137.7807  143.3312  161.8342 O.3     1  UNL1       -0.4684
     19 N         139.9364  138.8498  159.7083 N.pl3   1  UNL1       -0.3339
     20 H         139.2841  138.4121  159.1148 H       1  UNL1        0.1468
     21 C         140.1016  138.3745  161.1214 C.3     1  UNL1        0.0717
     22 C         138.9425  138.4303  162.0718 C.3     1  UNL1        0.0355
     23 C         139.1077  137.9550  163.4849 C.3     1  UNL1        0.0592
     24 C         139.7078  137.3983  164.7418 C.3     1  UNL1        0.0174
     25 C         141.1417  137.0594  164.4602 C.3     1  UNL1        0.0174
     26 C         141.4277  137.4067  163.0293 C.3     1  UNL1        0.0592
     27 C         141.4259  137.8434  161.5841 C.3     1  UNL1        0.0355
     28 N         140.1706  137.9602  162.4265 N.3     1  UNL1       -0.2740
     29 C         140.2698  138.1618  161.6616 C.3     1  UNL1        0.0896
     30 O         139.4380  145.6154  160.8165 O.3     1  UNL1       -0.4723
     31 C         139.9632  146.1681  162.1083 C.3     1  UNL1        0.2070
     32 C         141.0559  145.4491  162.8426 C.3     1  UNL1        0.0646
     33 C         140.7207  144.5614  164.0043 C.3     1  UNL1        0.0759
     34 N         141.1224  143.1163  163.9843 N.3     1  UNL1       -0.2726
     35 C         141.9917  142.4571  162.9548 C.3     1  UNL1        0.0721
     36 C         142.1319  141.0101  163.3245 C.3     1  UNL1        0.0188
     37 C         141.3492  140.7751  164.5824 C.3     1  UNL1        0.0188
     38 C         140.7253  142.0768  164.9901 C.3     1  UNL1        0.0721
@<TRIPOS>BOND
     1    17    18    1
     2    18     1    1
     3     1     2   ar
     4     2     3   ar
     5     3     4   ar
     6     4    19    1
     7    19    21    1
     8    21    22    1
     9    22    23    1
    10    23    24    1
    11    24    25    1
    12    25    26    1
    13    26    27    1
    14    26    28    1
    15    28    29    1
    16     4     5   ar
    17     5     6   ar
    18     6    11    1
    19    11    12   ar
    20    12    13   ar
    21    13    14   ar
    22    14    15    1
    23    14    16   ar
    24     6     7   ar
    25     7     8   ar
    26     8     9   ar
    27     9    10   ar
    28    10    30    1
    29    30    31    1
    30    31    32    1
    31    32    33    1
    32    33    34    1
    33    34    35    1
    34    35    36    1
    35    36    37    1
    36    37    38    1
    37    10     1   ar
    38    38    34    1
    39     8     3   ar
    40    27    21    1
    41    16    11   ar
    42    28    23    1
    43    19    20    1
@<TRIPOS>MOLECULE
*****
 38 43 0 0 0
SMALL
GASTEIGER

@<TRIPOS>ATOM
      1 C         143.0084  141.1875  160.6916 C.ar    1  UNL1        0.1725
      2 C         141.9532  142.2475  160.5787 C.ar    1  UNL1        0.0428
      3 C         140.7666  142.0326  159.6867 C.ar    1  UNL1        0.0340
      4 C         139.7114  143.0928  159.5738 C.ar    1  UNL1        0.0477
      5 C         138.5248  142.8779  158.6817 C.ar    1  UNL1        0.0365
      6 C         138.3934  141.6028  157.9025 C.ar    1  UNL1        0.1169
      7 N         139.4485  140.5428  158.0154 N.ar    1  UNL1       -0.2421
      8 C         140.6352  140.7577  158.9075 C.ar    1  UNL1        0.0858
      9 C         141.6903  139.6976  159.0204 C.ar    1  UNL1        0.0592
     10 C         142.8769  139.9125  159.9125 C.ar    1  UNL1        0.1737
     11 C         137.2068  141.3879  157.0105 C.ar    1  UNL1        0.1624
     12 C         136.8540  142.2022  155.8010 C.ar    1  UNL1        0.0418
     13 C         135.5937  141.6385  155.2143 C.ar    1  UNL1        0.0361
     14 C         135.1677  140.4760  156.0611 C.ar    1  UNL1        0.1234
     15 C         133.9573  139.6189  155.8371 C.3     1  UNL1        0.0725
     16 O         136.1646  140.3211  157.1711 O.2     1  UNL1       -0.4562
     17 C         143.9972  141.6298  163.0531 C.3     1  UNL1        0.2526
     18 O         144.1950  141.4024  161.5837 O.3     1  UNL1       -0.4684
     19 N         139.8428  144.3678  160.3529 N.pl3   1  UNL1       -0.3339
     20 H         140.1905  145.1784  159.9155 H       1  UNL1        0.1468
     21 C         139.4445  144.4078  161.7986 C.3     1  UNL1        0.0717
     22 C         138.0661  143.9818  162.2088 C.3     1  UNL1        0.0355
     23 C         137.6679  144.0218  163.6544 C.3     1  UNL1        0.0592
     24 C         137.7100  144.2190  165.1408 C.3     1  UNL1        0.0174
     25 C         139.0718  144.7339  165.5017 C.3     1  UNL1        0.0174
     26 C         139.8714  144.8550  164.2384 C.3     1  UNL1        0.0592
     27 C         140.4248  144.8737  162.8339 C.3     1  UNL1        0.0355
     28 N         139.0037  144.4149  163.0967 N.3     1  UNL1       -0.2740
     29 C         139.3841  144.4605  162.3976 C.3     1  UNL1        0.0896
     30 O         143.9322  138.8523  160.0254 O.3     1  UNL1       -0.4723
     31 C         143.8901  137.8699  161.1580 C.3     1  UNL1        0.2070
     32 C         142.9701  138.1033  162.3196 C.3     1  UNL1        0.0646
     33 C         141.5726  137.5592  162.2908 C.3     1  UNL1        0.0759
     34 N         140.4061  138.4943  162.1702 N.3     1  UNL1       -0.2726
     35 C         139.1646  138.2556  161.3629 C.3     1  UNL1        0.0721
     36 C         138.2674  139.4461  161.5294 C.3     1  UNL1        0.0188
     37 C         138.9544  140.4206  162.4396 C.3     1  UNL1        0.0188
     38 C         140.2762  139.8324  162.8356 C.3     1  UNL1        0.0721
@<TRIPOS>BOND
     1    17    18    1
     2    18     1    1
     3     1     2   ar
     4     2     3   ar
     5     3     4   ar
     6     4    19    1
     7    19    21    1
     8    21    22    1
     9    22    23    1
    10    23    24    1
    11    24    25    1
    12    25    26    1
    13    26    27    1
    14    26    28    1
    15    28    29    1
    16     4     5   ar
    17     5     6   ar
    18     6    11    1
    19    11    12   ar
    20    12    13   ar
    21    13    14   ar
    22    14    15    1
    23    14    16   ar
    24     6     7   ar
    25     7     8   ar
    26     8     9   ar
    27     9    10   ar
    28    10    30    1
    29    30    31    1
    30    31    32    1
    31    32    33    1
    32    33    34    1
    33    34    35    1
    34    35    36    1
    35    36    37    1
    36    37    38    1
    37    10     1   ar
    38    38    34    1
    39     8     3   ar
    40    27    21    1
    41    16    11   ar
    42    28    23    1
    43    19    20    1
@<TRIPOS>MOLECULE
*****
 38 43 0 0 0
SMALL
GASTEIGER

@<TRIPOS>ATOM
      1 C         142.2174  142.8712  162.5489 C.ar    1  UNL1        0.1725
      2 C         142.3235  141.3987  162.8143 C.ar    1  UNL1        0.0428
      3 C         142.3152  140.4280  161.6708 C.ar    1  UNL1        0.0340
      4 C         142.4212  138.9554  161.9362 C.ar    1  UNL1        0.0477
      5 C         142.4129  137.9847  160.7927 C.ar    1  UNL1        0.0365
      6 C         142.2986  138.4866  159.3837 C.ar    1  UNL1        0.1169
      7 N         142.1925  139.9591  159.1183 N.ar    1  UNL1       -0.2421
      8 C         142.2008  140.9298  160.2619 C.ar    1  UNL1        0.0858
      9 C         142.0948  142.4023  159.9965 C.ar    1  UNL1        0.0592
     10 C         142.1031  143.3730  161.1400 C.ar    1  UNL1        0.1737
     11 C         142.2903  137.5159  158.2402 C.ar    1  UNL1        0.1624
     12 C         141.3227  137.5121  157.0938 C.ar    1  UNL1        0.0418
     13 C         141.6826  136.3724  156.1874 C.ar    1  UNL1        0.0361
     14 C         142.8724  135.6718  156.7734 C.ar    1  UNL1        0.1234
     15 C         143.5650  134.4748  156.1928 C.3     1  UNL1        0.0725
     16 O         143.2480  136.3786  158.0421 O.2     1  UNL1       -0.4562
     17 C         143.4520  144.6586  163.9741 C.3     1  UNL1        0.2526
     18 O         142.2257  143.8419  163.6925 O.3     1  UNL1       -0.4684
     19 N         142.5355  138.4536  163.3451 N.pl3   1  UNL1       -0.3339
     20 H         143.3822  138.0636  163.6616 H       1  UNL1        0.1468
     21 C         141.3597  138.5461  164.2720 C.3     1  UNL1        0.0717
     22 C         141.4212  139.4404  165.4746 C.3     1  UNL1        0.0355
     23 C         140.2454  139.5328  166.4014 C.3     1  UNL1        0.0592
     24 C         138.8955  139.3182  167.0191 C.3     1  UNL1        0.0174
     25 C         138.1455  138.3389  166.1654 C.3     1  UNL1        0.0174
     26 C         139.0321  137.9483  165.0202 C.3     1  UNL1        0.0592
     27 C         140.1224  137.7443  163.9961 C.3     1  UNL1        0.0355
     28 N         140.3299  138.6863  165.1660 N.3     1  UNL1       -0.2740
     29 C         140.8398  138.5127  164.5784 C.3     1  UNL1        0.0896
     30 O         141.9971  144.8455  160.8746 O.3     1  UNL1       -0.4723
     31 C         140.6509  145.5061  160.8382 C.3     1  UNL1        0.2070
     32 C         139.9762  145.9047  162.1173 C.3     1  UNL1        0.0646
     33 C         138.7126  145.2184  162.5443 C.3     1  UNL1        0.0759
     34 N         138.6860  143.7272  162.7033 N.3     1  UNL1       -0.2726
     35 C         138.5655  142.7243  161.5944 C.3     1  UNL1        0.0721
     36 C         138.5802  141.3542  162.2049 C.3     1  UNL1        0.0188
     37 C         138.7099  141.5103  163.6912 C.3     1  UNL1        0.0188
     38 C         138.7753  142.9769  163.9992 C.3     1  UNL1        0.0721
@<TRIPOS>BOND
     1    17    18    1
     2    18     1    1
     3     1     2   ar
     4     2     3   ar
     5     3     4   ar
     6     4    19    1
     7    19    21    1
     8    21    22    1
     9    22    23    1
    10    23    24    1
    11    24    25    1
    12    25    26    1
    13    26    27    1
    14    26    28    1
    15    28    29    1
    16     4     5   ar
    17     5     6   ar
    18     6    11    1
    19    11    12   ar
    20    12    13   ar
    21    13    14   ar
    22    14    15    1
    23    14    16   ar
    24     6     7   ar
    25     7     8   ar
    26     8     9   ar
    27     9    10   ar
    28    10    30    1
    29    30    31    1
    30    31    32    1
    31    32    33    1
    32    33    34    1
    33    34    35    1
    34    35    36    1
    35    36    37    1
    36    37    38    1
    37    10     1   ar
    38    38    34    1
    39     8     3   ar
    40    27    21    1
    41    16    11   ar
    42    28    23    1
    43    19    20    1
@<TRIPOS>MOLECULE
*****
 38 43 0 0 0
SMALL
GASTEIGER

@<TRIPOS>ATOM
      1 C         143.4747  142.8910  160.5144 C.ar    1  UNL1        0.1725
      2 C         143.7478  141.4336  160.7407 C.ar    1  UNL1        0.0428
      3 C         143.2158  140.4127  159.7790 C.ar    1  UNL1        0.0340
      4 C         143.4889  138.9552  160.0054 C.ar    1  UNL1        0.0477
      5 C         142.9569  137.9343  159.0437 C.ar    1  UNL1        0.0365
      6 C         142.1518  138.3709  157.8557 C.ar    1  UNL1        0.1169
      7 N         141.8788  139.8284  157.6294 N.ar    1  UNL1       -0.2421
      8 C         142.4108  140.8493  158.5910 C.ar    1  UNL1        0.0858
      9 C         142.1377  142.3067  158.3648 C.ar    1  UNL1        0.0592
     10 C         142.6697  143.3276  159.3264 C.ar    1  UNL1        0.1737
     11 C         141.6198  137.3501  156.8940 C.ar    1  UNL1        0.1624
     12 C         140.3993  137.4999  156.0349 C.ar    1  UNL1        0.0418
     13 C         140.2401  136.2425  155.2326 C.ar    1  UNL1        0.0361
     14 C         141.3622  135.3156  155.5958 C.ar    1  UNL1        0.1234
     15 C         141.5912  133.9450  155.0313 C.3     1  UNL1        0.0725
     16 O         142.2148  136.0001  156.6226 O.2     1  UNL1       -0.4562
     17 C         144.5203  143.4820  162.8181 C.3     1  UNL1        0.2526
     18 O         144.0067  143.9119  161.4760 O.3     1  UNL1       -0.4684
     19 N         144.2939  138.5186  161.1933 N.pl3   1  UNL1       -0.3339
     20 H         145.1910  138.1338  161.0655 H       1  UNL1        0.1468
     21 C         143.7321  138.6684  162.5761 C.3     1  UNL1        0.0717
     22 C         142.3870  138.0924  162.9056 C.3     1  UNL1        0.0355
     23 C         141.8253  138.2422  164.2883 C.3     1  UNL1        0.0592
     24 C         141.6708  138.6170  165.7325 C.3     1  UNL1        0.0174
     25 C         142.8998  139.3687  166.1504 C.3     1  UNL1        0.0174
     26 C         143.8138  139.4585  164.9644 C.3     1  UNL1        0.0592
     27 C         144.5156  139.3944  163.6293 C.3     1  UNL1        0.0355
     28 N         143.1497  138.7623  163.8136 N.3     1  UNL1       -0.2740
     29 C         143.5974  138.7817  163.1543 C.3     1  UNL1        0.0896
     30 O         142.3966  144.7851  159.1001 O.3     1  UNL1       -0.4723
     31 C         141.0221  145.3364  159.3379 C.3     1  UNL1        0.2070
     32 C         140.1924  144.8178  160.4750 C.3     1  UNL1        0.0646
     33 C         140.5809  145.1292  161.8899 C.3     1  UNL1        0.0759
     34 N         140.8163  144.0145  162.8656 N.3     1  UNL1       -0.2726
     35 C         140.6508  142.5498  162.5875 C.3     1  UNL1        0.0721
     36 C         140.9908  141.7988  163.8407 C.3     1  UNL1        0.0188
     37 C         141.3665  142.7994  164.8933 C.3     1  UNL1        0.0188
     38 C         141.2586  144.1687  164.2906 C.3     1  UNL1        0.0721
@<TRIPOS>BOND
     1    17    18    1
     2    18     1    1
     3     1     2   ar
     4     2     3   ar
     5     3     4   ar
     6     4    19    1
     7    19    21    1
     8    21    22    1
     9    22    23    1
    10    23    24    1
    11    24    25    1
    12    25    26    1
    13    26    27    1
    14    26    28    1
    15    28    29    1
    16     4     5   ar
    17     5     6   ar
    18     6    11    1
    19    11    12   ar
    20    12    13   ar
    21    13    14   ar
    22    14    15    1
    23    14    16   ar
    24     6     7   ar
    25     7     8   ar
    26     8     9   ar
    27     9    10   ar
    28    10    30    1
    29    30    31    1
    30    31    32    1
    31    32    33    1
    32    33    34    1
    33    34    35    1
    34    35    36    1
    35    36    37    1
    36    37    38    1
    37    10     1   ar
    38    38    34    1
    39     8     3   ar
    40    27    21    1
    41    16    11   ar
    42    28    23    1
    43    19    20    1
@<TRIPOS>MOLECULE
*****
 38 43 0 0 0
SMALL
GASTEIGER

@<TRIPOS>ATOM
      1 C         142.0152  142.3901  161.2106 C.ar    1  UNL1        0.1725
      2 C         141.4287  141.1082  160.6981 C.ar    1  UNL1        0.0428
      3 C         140.2761  141.1415  159.7387 C.ar    1  UNL1        0.0340
      4 C         139.6896  139.8595  159.2262 C.ar    1  UNL1        0.0477
      5 C         138.5371  139.8928  158.2668 C.ar    1  UNL1        0.0365
      6 C         137.9710  141.2081  157.8198 C.ar    1  UNL1        0.1169
      7 N         138.5575  142.4900  158.3323 N.ar    1  UNL1       -0.2421
      8 C         139.7101  142.4567  159.2917 C.ar    1  UNL1        0.0858
      9 C         140.2966  143.7386  159.8042 C.ar    1  UNL1        0.0592
     10 C         141.4492  143.7053  160.7636 C.ar    1  UNL1        0.1737
     11 C         136.8185  141.2414  156.8604 C.ar    1  UNL1        0.1624
     12 C         136.7341  142.0687  155.6119 C.ar    1  UNL1        0.0418
     13 C         135.4114  141.7918  154.9609 C.ar    1  UNL1        0.0361
     14 C         134.6783  140.7934  155.8070 C.ar    1  UNL1        0.1234
     15 C         133.3150  140.2336  155.5280 C.3     1  UNL1        0.0725
     16 O         135.5479  140.4533  156.9809 O.2     1  UNL1       -0.4562
     17 C         144.5667  142.5618  161.6692 C.3     1  UNL1        0.2526
     18 O         143.1678  142.3568  162.1700 O.3     1  UNL1       -0.4684
     19 N         140.2557  138.5443  159.6731 N.pl3   1  UNL1       -0.3339
     20 H         140.6794  137.9430  159.0189 H       1  UNL1        0.1468
     21 C         140.1760  138.1453  161.1170 C.3     1  UNL1        0.0717
     22 C         141.4309  137.8502  161.8838 C.3     1  UNL1        0.0355
     23 C         141.3512  137.4512  163.3276 C.3     1  UNL1        0.0592
     24 C         140.8134  137.1058  164.6846 C.3     1  UNL1        0.0174
     25 C         139.3184  137.2162  164.6326 C.3     1  UNL1        0.0174
     26 C         138.9322  137.6298  163.2435 C.3     1  UNL1        0.0592
     27 C         138.8414  138.0414  161.7938 C.3     1  UNL1        0.0355
     28 N         140.1885  137.7750  162.4369 N.3     1  UNL1       -0.2740
     29 C         140.0374  137.9950  161.6857 C.3     1  UNL1        0.0896
     30 O         142.0357  144.9873  161.2761 O.3     1  UNL1       -0.4723
     31 C         141.5414  145.5761  162.5641 C.3     1  UNL1        0.2070
     32 C         140.0743  145.8161  162.7649 C.3     1  UNL1        0.0646
     33 C         139.3133  145.0078  163.7735 C.3     1  UNL1        0.0759
     34 N         138.9602  143.5802  163.4784 N.3     1  UNL1       -0.2726
     35 C         139.6162  142.3689  164.0720 C.3     1  UNL1        0.0721
     36 C         138.9506  141.1533  163.4983 C.3     1  UNL1        0.0188
     37 C         137.8831  141.6133  162.5501 C.3     1  UNL1        0.0188
     38 C         137.8891  143.1132  162.5378 C.3     1  UNL1        0.0721
@<TRIPOS>BOND
     1    17    18    1
     2    18     1    1
     3     1     2   ar
     4     2     3   ar
     5     3     4   ar
     6     4    19    1
     7    19    21    1
     8    21    22    1
     9    22    23    1
    10    23    24    1
    11    24    25    1
    12    25    26    1
    13    26    27    1
    14    26    28    1
    15    28    29    1
    16     4     5   ar
    17     5     6   ar
    18     6    11    1
    19    11    12   ar
    20    12    13   ar
    21    13    14   ar
    22    14    15    1
    23    14    16   ar
    24     6     7   ar
    25     7     8   ar
    26     8     9   ar
    27     9    10   ar
    28    10    30    1
    29    30    31    1
    30    31    32    1
    31    32    33    1
    32    33    34    1
    33    34    35    1
    34    35    36    1
    35    36    37    1
    36    37    38    1
    37    10     1   ar
    38    38    34    1
    39     8     3   ar
    40    27    21    1
    41    16    11   ar
    42    28    23    1
    43    19    20    1
@<TRIPOS>MOLECULE
*****
 38 43 0 0 0
SMALL
GASTEIGER

@<TRIPOS>ATOM
      1 C         143.8263  141.1925  161.4442 C.ar    1  UNL1        0.1725
      2 C         143.1084  142.5057  161.3440 C.ar    1  UNL1        0.0428
      3 C         142.3620  142.8588  160.0917 C.ar    1  UNL1        0.0340
      4 C         141.6441  144.1721  159.9916 C.ar    1  UNL1        0.0477
      5 C         140.8977  144.5252  158.7393 C.ar    1  UNL1        0.0365
      6 C         140.8693  143.5651  157.5871 C.ar    1  UNL1        0.1169
      7 N         141.5872  142.2519  157.6873 N.ar    1  UNL1       -0.2421
      8 C         142.3336  141.8988  158.9396 C.ar    1  UNL1        0.0858
      9 C         143.0514  140.5856  159.0397 C.ar    1  UNL1        0.0592
     10 C         143.7978  140.2324  160.2920 C.ar    1  UNL1        0.1737
     11 C         140.1229  143.9182  156.3348 C.ar    1  UNL1        0.1624
     12 C         140.7170  144.5128  155.0923 C.ar    1  UNL1        0.0418
     13 C         139.6126  144.7009  154.0948 C.ar    1  UNL1        0.0361
     14 C         138.3361  144.2225  154.7207 C.ar    1  UNL1        0.1234
     15 C         136.9821  144.2271  154.0755 C.3     1  UNL1        0.0725
     16 O         138.6515  143.7389  156.1051 O.2     1  UNL1       -0.4562
     17 C         145.6131  141.7741  163.2383 C.3     1  UNL1        0.2526
     18 O         144.5727  140.8393  162.6964 O.3     1  UNL1       -0.4684
     19 N         141.6726  145.1322  161.1437 N.pl3   1  UNL1       -0.3339
     20 H         142.2978  145.8926  161.1354 H       1  UNL1        0.1468
     21 C         140.7484  144.9336  162.3085 C.3     1  UNL1        0.0717
     22 C         139.2694  144.8273  162.0828 C.3     1  UNL1        0.0355
     23 C         138.3454  144.6287  163.2475 C.3     1  UNL1        0.0592
     24 C         137.8294  144.4424  164.6436 C.3     1  UNL1        0.0174
     25 C         139.0039  144.4505  165.5768 C.3     1  UNL1        0.0174
     26 C         140.2456  144.6419  164.7573 C.3     1  UNL1        0.0592
     27 C         141.3035  144.8413  163.6990 C.3     1  UNL1        0.0355
     28 N         139.8386  144.7520  163.3178 N.3     1  UNL1       -0.2740
     29 C         140.4661  144.8554  162.8372 C.3     1  UNL1        0.0896
     30 O         144.5157  138.9191  160.3922 O.3     1  UNL1       -0.4723
     31 C         143.8613  137.7570  161.0786 C.3     1  UNL1        0.2070
     32 C         142.3836  137.7733  161.3362 C.3     1  UNL1        0.0646
     33 C         141.8619  138.1688  162.6858 C.3     1  UNL1        0.0759
     34 N         140.9389  139.3437  162.8182 N.3     1  UNL1       -0.2726
     35 C         140.4838  139.9667  164.1046 C.3     1  UNL1        0.0721
     36 C         139.5725  141.1099  163.7689 C.3     1  UNL1        0.0188
     37 C         139.4643  141.1934  162.2751 C.3     1  UNL1        0.0188
     38 C         140.3088  140.1018  161.6876 C.3     1  UNL1        0.0721
@<TRIPOS>BOND
     1    17    18    1
     2    18     1    1
     3     1     2   ar
     4     2     3   ar
     5     3     4   ar
     6     4    19    1
     7    19    21    1
     8    21    22    1
     9    22    23    1
    10    23    24    1
    11    24    25    1
    12    25    26    1
    13    26    27    1
    14    26    28    1
    15    28    29    1
    16     4     5   ar
    17     5     6   ar
    18     6    11    1
    19    11    12   ar
    20    12    13   ar
    21    13    14   ar
    22    14    15    1
    23    14    16   ar
    24     6     7   ar
    25     7     8   ar
    26     8     9   ar
    27     9    10   ar
    28    10    30    1
    29    30    31    1
    30    31    32    1
    31    32    33    1
    32    33    34    1
    33    34    35    1
    34    35    36    1
    35    36    37    1
    36    37    38    1
    37    10     1   ar
    38    38    34    1
    39     8     3   ar
    40    27    21    1
    41    16    11   ar
    42    28    23    1
    43    19    20    1
