@<TRIPOS>MOLECULE
*****
 27 30 0 0 0
SMALL
GASTEIGER

@<TRIPOS>ATOM
      1 C         140.1462  137.4563  162.9894 C.3     1  UNL1        0.0721
      2 O         144.5657  138.4913  160.7796 O.3     1  UNL1       -0.3785
      3 C         143.0884  138.5313  160.5230 C.3     1  UNL1        0.1498
      4 C         142.2190  138.0591  161.6504 C.3     1  UNL1        0.0368
      5 C         140.7222  137.9772  161.7060 C.3     1  UNL1        0.0191
      6 C         139.7253  138.3473  160.6481 C.3     1  UNL1        0.0062
      7 C         139.9790  138.8907  159.2732 C.3     1  UNL1        0.0277
      8 C         141.2921  139.1982  158.6166 C.ar    1  UNL1       -0.0063
      9 C         141.0990  139.7293  157.2272 C.ar    1  UNL1       -0.0014
     10 C         142.2897  140.1004  156.3939 C.ar    1  UNL1        0.0203
     11 C         143.6736  139.9405  156.9501 C.ar    1  UNL1        0.0985
     12 N         143.8667  139.4094  158.3395 N.ar    1  UNL1       -0.2461
     13 C         142.6760  139.0383  159.1728 C.ar    1  UNL1        0.0817
     14 H         144.7296  138.1514  161.6732 H       1  UNL1        0.2108
     15 N         140.1085  138.3339  164.2053 N.3     1  UNL1       -0.2727
     16 C         141.3275  138.4721  165.0686 C.3     1  UNL1        0.0724
     17 C         141.2898  139.3496  166.2845 C.3     1  UNL1        0.0217
     18 C         140.0332  140.0890  166.6371 C.3     1  UNL1        0.0259
     19 C         138.8143  139.9508  165.7739 C.3     1  UNL1        0.0217
     20 C         138.8520  139.0732  164.5579 C.3     1  UNL1        0.0724
     21 C         139.9956  140.9666  167.8531 C.ar    1  UNL1       -0.0118
     22 C         139.4831  140.4238  169.1541 C.ar    1  UNL1       -0.0034
     23 C         139.4454  141.3014  170.3700 C.ar    1  UNL1       -0.0003
     24 C         139.9203  142.7217  170.2849 C.ar    1  UNL1        0.0008
     25 C         140.4328  143.2644  168.9838 C.ar    1  UNL1        0.0111
     26 C         140.4705  142.3869  167.7679 C.ar    1  UNL1        0.0537
     27 CL        140.9830  142.9296  166.4668 Cl      1  UNL1       -0.0826
@<TRIPOS>BOND
     1     3     2    1
     2     3     4    1
     3     4     5    1
     4     5     1    1
     5     1    15    1
     6    15    16    1
     7    16    17    1
     8    17    18    1
     9    18    21    1
    10    21    22   ar
    11    22    23   ar
    12    23    24   ar
    13    24    25   ar
    14    25    26   ar
    15    26    27    1
    16    18    19    1
    17    19    20    1
    18     5     6    1
    19     6     7    1
    20     7     8    1
    21     8     9   ar
    22     9    10   ar
    23    10    11   ar
    24    11    12   ar
    25    12    13   ar
    26    13     3    1
    27    20    15    1
    28    13     8   ar
    29    26    21   ar
    30     2    14    1
@<TRIPOS>MOLECULE
*****
 27 30 0 0 0
SMALL
GASTEIGER

@<TRIPOS>ATOM
      1 C         140.0345  137.3560  163.5878 C.3     1  UNL1        0.0721
      2 O         136.5774  139.5540  160.6377 O.3     1  UNL1       -0.3785
      3 C         138.0272  139.1697  160.6593 C.3     1  UNL1        0.1498
      4 C         138.5026  138.4934  161.9110 C.3     1  UNL1        0.0368
      5 C         139.8781  137.9929  162.2388 C.3     1  UNL1        0.0191
      6 C         141.1179  138.0450  161.3961 C.3     1  UNL1        0.0062
      7 C         141.2883  138.6106  160.0173 C.3     1  UNL1        0.0277
      8 C         140.2612  139.2637  159.1407 C.ar    1  UNL1       -0.0063
      9 C         140.8514  139.6909  157.8295 C.ar    1  UNL1       -0.0014
     10 C         139.9903  140.3668  156.8041 C.ar    1  UNL1        0.0203
     11 C         138.5389  140.6157  157.0899 C.ar    1  UNL1        0.0985
     12 N         137.9487  140.1885  158.4010 N.ar    1  UNL1       -0.2461
     13 C         138.8098  139.5125  159.4264 C.ar    1  UNL1        0.0817
     14 H         136.1610  139.2920  161.4736 H       1  UNL1        0.2108
     15 N         140.1417  138.2132  164.8141 N.3     1  UNL1       -0.2727
     16 C         141.4876  138.6668  165.2968 C.3     1  UNL1        0.0724
     17 C         141.5948  139.5240  166.5230 C.3     1  UNL1        0.0217
     18 C         140.3562  139.9277  167.2665 C.3     1  UNL1        0.0259
     19 C         139.0103  139.4741  166.7839 C.3     1  UNL1        0.0217
     20 C         138.9031  138.6169  165.5576 C.3     1  UNL1        0.0724
     21 C         140.4634  140.7849  168.4928 C.ar    1  UNL1       -0.0118
     22 C         140.5684  140.1476  169.8466 C.ar    1  UNL1       -0.0034
     23 C         140.6757  141.0049  171.0728 C.ar    1  UNL1       -0.0003
     24 C         140.6779  142.4994  170.9452 C.ar    1  UNL1        0.0008
     25 C         140.5729  143.1367  169.5914 C.ar    1  UNL1        0.0111
     26 C         140.4657  142.2795  168.3652 C.ar    1  UNL1        0.0537
     27 CL        140.3606  142.9168  167.0113 Cl      1  UNL1       -0.0826
@<TRIPOS>BOND
     1     3     2    1
     2     3     4    1
     3     4     5    1
     4     5     1    1
     5     1    15    1
     6    15    16    1
     7    16    17    1
     8    17    18    1
     9    18    21    1
    10    21    22   ar
    11    22    23   ar
    12    23    24   ar
    13    24    25   ar
    14    25    26   ar
    15    26    27    1
    16    18    19    1
    17    19    20    1
    18     5     6    1
    19     6     7    1
    20     7     8    1
    21     8     9   ar
    22     9    10   ar
    23    10    11   ar
    24    11    12   ar
    25    12    13   ar
    26    13     3    1
    27    20    15    1
    28    13     8   ar
    29    26    21   ar
    30     2    14    1
@<TRIPOS>MOLECULE
*****
 27 30 0 0 0
SMALL
GASTEIGER

@<TRIPOS>ATOM
      1 C         137.6478  142.4970  162.9116 C.3     1  UNL1        0.0721
      2 O         140.8399  146.2145  161.6963 O.3     1  UNL1       -0.3785
      3 C         140.1600  145.0135  161.1085 C.3     1  UNL1        0.1498
      4 C         139.2626  144.2532  162.0394 C.3     1  UNL1        0.0368
      5 C         138.4510  143.0232  161.7592 C.3     1  UNL1        0.0191
      6 C         138.3363  142.2499  160.4790 C.3     1  UNL1        0.0062
      7 C         139.0050  142.5156  159.1629 C.3     1  UNL1        0.0277
      8 C         139.9534  143.6201  158.8017 C.ar    1  UNL1       -0.0063
      9 C         140.3920  143.5200  157.3708 C.ar    1  UNL1       -0.0014
     10 C         141.3445  144.5315  156.8058 C.ar    1  UNL1        0.0203
     11 C         141.8586  145.6433  157.6717 C.ar    1  UNL1        0.0985
     12 N         141.4201  145.7434  159.1026 N.ar    1  UNL1       -0.2461
     13 C         140.4675  144.7318  159.6676 C.ar    1  UNL1        0.0817
     14 H         140.5788  146.3114  162.6254 H       1  UNL1        0.2108
     15 N         138.3430  141.9729  164.1330 N.3     1  UNL1       -0.2727
     16 C         138.1713  140.5383  164.5362 C.3     1  UNL1        0.0724
     17 C         138.8665  140.0141  165.7576 C.3     1  UNL1        0.0217
     18 C         139.7334  140.9245  166.5759 C.3     1  UNL1        0.0259
     19 C         139.9052  142.3591  166.1728 C.3     1  UNL1        0.0217
     20 C         139.2100  142.8833  164.9513 C.3     1  UNL1        0.0724
     21 C         140.4287  140.4003  167.7974 C.ar    1  UNL1       -0.0118
     22 C         139.7375  140.4383  169.1281 C.ar    1  UNL1       -0.0034
     23 C         140.4328  139.9141  170.3495 C.ar    1  UNL1       -0.0003
     24 C         141.8191  139.3520  170.2402 C.ar    1  UNL1        0.0008
     25 C         142.5102  139.3139  168.9095 C.ar    1  UNL1        0.0111
     26 C         141.8150  139.8381  167.6881 C.ar    1  UNL1        0.0537
     27 CL        142.5062  139.8001  166.3573 Cl      1  UNL1       -0.0826
@<TRIPOS>BOND
     1     3     2    1
     2     3     4    1
     3     4     5    1
     4     5     1    1
     5     1    15    1
     6    15    16    1
     7    16    17    1
     8    17    18    1
     9    18    21    1
    10    21    22   ar
    11    22    23   ar
    12    23    24   ar
    13    24    25   ar
    14    25    26   ar
    15    26    27    1
    16    18    19    1
    17    19    20    1
    18     5     6    1
    19     6     7    1
    20     7     8    1
    21     8     9   ar
    22     9    10   ar
    23    10    11   ar
    24    11    12   ar
    25    12    13   ar
    26    13     3    1
    27    20    15    1
    28    13     8   ar
    29    26    21   ar
    30     2    14    1
@<TRIPOS>MOLECULE
*****
 27 30 0 0 0
SMALL
GASTEIGER

@<TRIPOS>ATOM
      1 C         137.8757  143.4847  163.3768 C.3     1  UNL1        0.0721
      2 O         138.3258  141.4448  158.7809 O.3     1  UNL1       -0.3785
      3 C         138.8095  142.6029  159.6025 C.3     1  UNL1        0.1498
      4 C         138.2796  142.6728  161.0040 C.3     1  UNL1        0.0368
      5 C         138.5685  143.6950  162.0631 C.3     1  UNL1        0.0191
      6 C         139.4585  144.8998  161.9822 C.3     1  UNL1        0.0062
      7 C         140.2795  145.3797  160.8222 C.3     1  UNL1        0.0277
      8 C         140.4133  144.7736  159.4566 C.ar    1  UNL1       -0.0063
      9 C         141.3404  145.5736  158.5904 C.ar    1  UNL1       -0.0014
     10 C         141.6132  145.1378  157.1813 C.ar    1  UNL1        0.0203
     11 C         140.9590  143.9020  156.6385 C.ar    1  UNL1        0.0985
     12 N         140.0319  143.1020  157.5047 N.ar    1  UNL1       -0.2461
     13 C         139.7591  143.5378  158.9138 C.ar    1  UNL1        0.0817
     14 H         137.7210  140.9025  159.3110 H       1  UNL1        0.2108
     15 N         138.5797  142.7661  164.4894 N.3     1  UNL1       -0.2727
     16 C         138.3463  141.2995  164.7008 C.3     1  UNL1        0.0724
     17 C         139.0503  140.5808  165.8134 C.3     1  UNL1        0.0217
     18 C         139.9877  141.3287  166.7146 C.3     1  UNL1        0.0259
     19 C         140.2210  142.7952  166.5031 C.3     1  UNL1        0.0217
     20 C         139.5170  143.5140  165.3905 C.3     1  UNL1        0.0724
     21 C         140.6917  140.6099  167.8272 C.ar    1  UNL1       -0.0118
     22 C         140.0616  140.5312  169.1862 C.ar    1  UNL1       -0.0034
     23 C         140.7656  139.8125  170.2987 C.ar    1  UNL1       -0.0003
     24 C         142.0996  139.1725  170.0523 C.ar    1  UNL1        0.0008
     25 C         142.7297  139.2512  168.6933 C.ar    1  UNL1        0.0111
     26 C         142.0257  139.9699  167.5808 C.ar    1  UNL1        0.0537
     27 CL        142.6557  140.0486  166.2217 Cl      1  UNL1       -0.0826
@<TRIPOS>BOND
     1     3     2    1
     2     3     4    1
     3     4     5    1
     4     5     1    1
     5     1    15    1
     6    15    16    1
     7    16    17    1
     8    17    18    1
     9    18    21    1
    10    21    22   ar
    11    22    23   ar
    12    23    24   ar
    13    24    25   ar
    14    25    26   ar
    15    26    27    1
    16    18    19    1
    17    19    20    1
    18     5     6    1
    19     6     7    1
    20     7     8    1
    21     8     9   ar
    22     9    10   ar
    23    10    11   ar
    24    11    12   ar
    25    12    13   ar
    26    13     3    1
    27    20    15    1
    28    13     8   ar
    29    26    21   ar
    30     2    14    1
@<TRIPOS>MOLECULE
*****
 27 30 0 0 0
SMALL
GASTEIGER

@<TRIPOS>ATOM
      1 C         138.5563  138.4576  163.5047 C.3     1  UNL1        0.0721
      2 O         137.5624  143.0316  161.6134 O.3     1  UNL1       -0.3785
      3 C         138.1040  141.6905  161.2158 C.3     1  UNL1        0.1498
      4 C         138.1538  140.6599  162.3045 C.3     1  UNL1        0.0368
      5 C         138.6362  139.2416  162.2283 C.3     1  UNL1        0.0191
      6 C         139.1878  138.5035  161.0447 C.3     1  UNL1        0.0062
      7 C         139.3933  139.0017  159.6448 C.3     1  UNL1        0.0277
      8 C         139.0980  140.3607  159.0828 C.ar    1  UNL1       -0.0063
      9 C         139.4540  140.4413  157.6279 C.ar    1  UNL1       -0.0014
     10 C         139.2363  141.7186  156.8722 C.ar    1  UNL1        0.0203
     11 C         138.6625  142.9152  157.5714 C.ar    1  UNL1        0.0985
     12 N         138.3065  142.8346  159.0262 N.ar    1  UNL1       -0.2461
     13 C         138.5242  141.5574  159.7819 C.ar    1  UNL1        0.0817
     14 H         137.3204  143.0170  162.5526 H       1  UNL1        0.2108
     15 N         139.0993  139.0381  164.7767 N.3     1  UNL1       -0.2727
     16 C         138.3412  138.8723  166.0604 C.3     1  UNL1        0.0724
     17 C         138.8841  139.4529  167.3324 C.3     1  UNL1        0.0217
     18 C         140.1852  140.1993  167.3208 C.3     1  UNL1        0.0259
     19 C         140.9433  140.3651  166.0372 C.3     1  UNL1        0.0217
     20 C         140.4004  139.7845  164.7651 C.3     1  UNL1        0.0724
     21 C         140.7282  140.7798  168.5930 C.ar    1  UNL1       -0.0118
     22 C         140.0356  141.9407  169.2432 C.ar    1  UNL1       -0.0034
     23 C         140.5786  142.5212  170.5152 C.ar    1  UNL1       -0.0003
     24 C         141.8141  141.9409  171.1370 C.ar    1  UNL1        0.0008
     25 C         142.5067  140.7800  170.4868 C.ar    1  UNL1        0.0111
     26 C         141.9637  140.1995  169.2148 C.ar    1  UNL1        0.0537
     27 CL        142.6563  139.0387  168.5645 Cl      1  UNL1       -0.0826
@<TRIPOS>BOND
     1     3     2    1
     2     3     4    1
     3     4     5    1
     4     5     1    1
     5     1    15    1
     6    15    16    1
     7    16    17    1
     8    17    18    1
     9    18    21    1
    10    21    22   ar
    11    22    23   ar
    12    23    24   ar
    13    24    25   ar
    14    25    26   ar
    15    26    27    1
    16    18    19    1
    17    19    20    1
    18     5     6    1
    19     6     7    1
    20     7     8    1
    21     8     9   ar
    22     9    10   ar
    23    10    11   ar
    24    11    12   ar
    25    12    13   ar
    26    13     3    1
    27    20    15    1
    28    13     8   ar
    29    26    21   ar
    30     2    14    1
@<TRIPOS>MOLECULE
*****
 27 30 0 0 0
SMALL
GASTEIGER

@<TRIPOS>ATOM
      1 C         143.8785  143.3023  162.8401 C.3     1  UNL1        0.0721
      2 O         144.6036  138.7290  160.8287 O.3     1  UNL1       -0.3785
      3 C         144.0184  140.0723  160.5072 C.3     1  UNL1        0.1498
      4 C         144.1144  141.1010  161.5946 C.3     1  UNL1        0.0368
      5 C         143.6302  142.5207  161.5841 C.3     1  UNL1        0.0191
      6 C         142.9306  143.2623  160.4838 C.3     1  UNL1        0.0062
      7 C         142.5424  142.7672  159.1221 C.3     1  UNL1        0.0277
      8 C         142.7579  141.4084  158.5244 C.ar    1  UNL1       -0.0063
      9 C         142.2144  141.3313  157.1285 C.ar    1  UNL1       -0.0014
     10 C         142.3278  140.0548  156.3490 C.ar    1  UNL1        0.0203
     11 C         142.9847  138.8554  156.9654 C.ar    1  UNL1        0.0985
     12 N         143.5282  138.9325  158.3613 N.ar    1  UNL1       -0.2461
     13 C         143.4148  140.2090  159.1408 C.ar    1  UNL1        0.0817
     14 H         144.9664  138.7413  161.7282 H       1  UNL1        0.2108
     15 N         143.1085  142.9825  164.0870 N.3     1  UNL1       -0.2727
     16 C         141.6498  143.3208  164.1752 C.3     1  UNL1        0.0724
     17 C         140.8798  143.0010  165.4221 C.3     1  UNL1        0.0217
     18 C         141.5684  142.3429  166.5808 C.3     1  UNL1        0.0259
     19 C         143.0271  142.0046  166.4927 C.3     1  UNL1        0.0217
     20 C         143.7972  142.3244  165.2457 C.3     1  UNL1        0.0724
     21 C         140.7983  142.0231  167.8278 C.ar    1  UNL1       -0.0118
     22 C         140.7216  143.0266  168.9400 C.ar    1  UNL1       -0.0034
     23 C         139.9515  142.7067  170.1868 C.ar    1  UNL1       -0.0003
     24 C         139.2582  141.3834  170.3215 C.ar    1  UNL1        0.0008
     25 C         139.3350  140.3799  169.2093 C.ar    1  UNL1        0.0111
     26 C         140.1050  140.6997  167.9624 C.ar    1  UNL1        0.0537
     27 CL        140.1818  139.6962  166.8502 Cl      1  UNL1       -0.0826
@<TRIPOS>BOND
     1     3     2    1
     2     3     4    1
     3     4     5    1
     4     5     1    1
     5     1    15    1
     6    15    16    1
     7    16    17    1
     8    17    18    1
     9    18    21    1
    10    21    22   ar
    11    22    23   ar
    12    23    24   ar
    13    24    25   ar
    14    25    26   ar
    15    26    27    1
    16    18    19    1
    17    19    20    1
    18     5     6    1
    19     6     7    1
    20     7     8    1
    21     8     9   ar
    22     9    10   ar
    23    10    11   ar
    24    11    12   ar
    25    12    13   ar
    26    13     3    1
    27    20    15    1
    28    13     8   ar
    29    26    21   ar
    30     2    14    1
@<TRIPOS>MOLECULE
*****
 27 30 0 0 0
SMALL
GASTEIGER

@<TRIPOS>ATOM
      1 C         137.8004  141.1443  162.9704 C.3     1  UNL1        0.0721
      2 O         137.0523  140.2770  158.0537 O.3     1  UNL1       -0.3785
      3 C         138.0604  140.0593  159.1429 C.3     1  UNL1        0.1498
      4 C         137.6800  140.5832  160.4959 C.3     1  UNL1        0.0368
      5 C         138.4610  140.5236  161.7753 C.3     1  UNL1        0.0191
      6 C         139.8151  139.9255  162.0175 C.3     1  UNL1        0.0062
      7 C         140.7227  139.2391  161.0401 C.3     1  UNL1        0.0277
      8 C         140.5004  138.9814  159.5792 C.ar    1  UNL1       -0.0063
      9 C         141.6649  138.2614  158.9664 C.ar    1  UNL1       -0.0014
     10 C         141.6445  137.9064  157.5092 C.ar    1  UNL1        0.0203
     11 C         140.4597  138.2714  156.6648 C.ar    1  UNL1        0.0985
     12 N         139.2952  138.9914  157.2776 N.ar    1  UNL1       -0.2461
     13 C         139.3156  139.3464  158.7348 C.ar    1  UNL1        0.0817
     14 H         136.2816  140.7424  158.4148 H       1  UNL1        0.2108
     15 N         138.6104  141.4703  164.1901 N.3     1  UNL1       -0.2727
     16 C         138.7206  140.4736  165.3057 C.3     1  UNL1        0.0724
     17 C         139.5306  140.7997  166.5253 C.3     1  UNL1        0.0217
     18 C         140.2304  142.1223  166.6294 C.3     1  UNL1        0.0259
     19 C         140.1202  143.1190  165.5139 C.3     1  UNL1        0.0217
     20 C         139.3102  142.7930  164.2942 C.3     1  UNL1        0.0724
     21 C         141.0404  142.4483  167.8492 C.ar    1  UNL1       -0.0118
     22 C         140.4297  143.2440  168.9645 C.ar    1  UNL1       -0.0034
     23 C         141.2397  143.5699  170.1841 C.ar    1  UNL1       -0.0003
     24 C         142.6605  143.1002  170.2885 C.ar    1  UNL1        0.0008
     25 C         143.2712  142.3046  169.1732 C.ar    1  UNL1        0.0111
     26 C         142.4612  141.9786  167.9536 C.ar    1  UNL1        0.0537
     27 CL        143.0719  141.1829  166.8382 Cl      1  UNL1       -0.0826
@<TRIPOS>BOND
     1     3     2    1
     2     3     4    1
     3     4     5    1
     4     5     1    1
     5     1    15    1
     6    15    16    1
     7    16    17    1
     8    17    18    1
     9    18    21    1
    10    21    22   ar
    11    22    23   ar
    12    23    24   ar
    13    24    25   ar
    14    25    26   ar
    15    26    27    1
    16    18    19    1
    17    19    20    1
    18     5     6    1
    19     6     7    1
    20     7     8    1
    21     8     9   ar
    22     9    10   ar
    23    10    11   ar
    24    11    12   ar
    25    12    13   ar
    26    13     3    1
    27    20    15    1
    28    13     8   ar
    29    26    21   ar
    30     2    14    1
@<TRIPOS>MOLECULE
*****
 27 30 0 0 0
SMALL
GASTEIGER

@<TRIPOS>ATOM
      1 C         140.6388  145.5358  162.3538 C.3     1  UNL1        0.0721
      2 O         140.9911  146.3376  157.3820 O.3     1  UNL1       -0.3785
      3 C         140.4488  145.3535  158.3756 C.3     1  UNL1        0.1498
      4 C         140.6749  145.6942  159.8188 C.3     1  UNL1        0.0368
      5 C         140.2601  144.9242  161.0375 C.3     1  UNL1        0.0191
      6 C         139.5168  143.6236  161.1141 C.3     1  UNL1        0.0062
      7 C         139.0047  142.7717  159.9907 C.3     1  UNL1        0.0277
      8 C         139.1094  143.0099  158.5134 C.ar    1  UNL1       -0.0063
      9 C         138.4601  141.9057  157.7329 C.ar    1  UNL1       -0.0014
     10 C         138.4536  141.9505  156.2336 C.ar    1  UNL1        0.0203
     11 C         139.0963  143.0996  155.5149 C.ar    1  UNL1        0.0985
     12 N         139.7455  144.2038  156.2954 N.ar    1  UNL1       -0.2461
     13 C         139.7520  144.1589  157.7946 C.ar    1  UNL1        0.0817
     14 H         141.4202  147.0692  157.8527 H       1  UNL1        0.2108
     15 N         140.5340  144.7286  163.6137 N.3     1  UNL1       -0.2727
     16 C         141.6670  143.8381  164.0303 C.3     1  UNL1        0.0724
     17 C         141.5622  143.0309  165.2902 C.3     1  UNL1        0.0217
     18 C         140.3246  143.1141  166.1336 C.3     1  UNL1        0.0259
     19 C         139.1917  144.0046  165.7170 C.3     1  UNL1        0.0217
     20 C         139.2964  144.8119  164.4571 C.3     1  UNL1        0.0724
     21 C         140.2199  142.3068  167.3935 C.ar    1  UNL1       -0.0118
     22 C         140.5234  142.9415  168.7183 C.ar    1  UNL1       -0.0034
     23 C         140.4187  142.1342  169.9781 C.ar    1  UNL1       -0.0003
     24 C         140.0105  140.6923  169.9132 C.ar    1  UNL1        0.0008
     25 C         139.7069  140.0576  168.5885 C.ar    1  UNL1        0.0111
     26 C         139.8116  140.8649  167.3286 C.ar    1  UNL1        0.0537
     27 CL        139.5081  140.2303  166.0037 Cl      1  UNL1       -0.0826
@<TRIPOS>BOND
     1     3     2    1
     2     3     4    1
     3     4     5    1
     4     5     1    1
     5     1    15    1
     6    15    16    1
     7    16    17    1
     8    17    18    1
     9    18    21    1
    10    21    22   ar
    11    22    23   ar
    12    23    24   ar
    13    24    25   ar
    14    25    26   ar
    15    26    27    1
    16    18    19    1
    17    19    20    1
    18     5     6    1
    19     6     7    1
    20     7     8    1
    21     8     9   ar
    22     9    10   ar
    23    10    11   ar
    24    11    12   ar
    25    12    13   ar
    26    13     3    1
    27    20    15    1
    28    13     8   ar
    29    26    21   ar
    30     2    14    1
@<TRIPOS>MOLECULE
*****
 27 30 0 0 0
SMALL
GASTEIGER

@<TRIPOS>ATOM
      1 C         144.9702  140.5014  163.5010 C.3     1  UNL1        0.0721
      2 O         143.2409  136.7755  160.5661 O.3     1  UNL1       -0.3785
      3 C         143.4911  138.2545  160.5584 C.3     1  UNL1        0.1498
      4 C         144.0595  138.8250  161.8239 C.3     1  UNL1        0.0368
      5 C         144.4170  140.2493  162.1297 C.3     1  UNL1        0.0191
      6 C         144.2945  141.4549  161.2456 C.3     1  UNL1        0.0062
      7 C         143.7842  141.5338  159.8373 C.3     1  UNL1        0.0277
      8 C         143.2703  140.4268  158.9652 C.ar    1  UNL1       -0.0063
      9 C         142.8565  140.9382  157.6172 C.ar    1  UNL1       -0.0014
     10 C         142.3122  139.9901  156.5902 C.ar    1  UNL1        0.0203
     11 C         142.1817  138.5307  156.9111 C.ar    1  UNL1        0.0985
     12 N         142.5956  138.0193  158.2591 N.ar    1  UNL1       -0.2461
     13 C         143.1399  138.9673  159.2862 C.ar    1  UNL1        0.0817
     14 H         143.4981  136.4086  161.4264 H       1  UNL1        0.2108
     15 N         144.0607  140.4740  164.6934 N.3     1  UNL1       -0.2727
     16 C         143.7473  139.1713  165.3679 C.3     1  UNL1        0.0724
     17 C         142.8377  139.1439  166.5603 C.3     1  UNL1        0.0217
     18 C         142.2414  140.4191  167.0782 C.3     1  UNL1        0.0259
     19 C         142.5548  141.7218  166.4038 C.3     1  UNL1        0.0217
     20 C         143.4644  141.7492  165.2113 C.3     1  UNL1        0.0724
     21 C         141.3318  140.3917  168.2707 C.ar    1  UNL1       -0.0118
     22 C         139.8723  140.0944  168.0939 C.ar    1  UNL1       -0.0034
     23 C         138.9627  140.0670  169.2864 C.ar    1  UNL1       -0.0003
     24 C         139.5127  140.3368  170.6556 C.ar    1  UNL1        0.0008
     25 C         140.9723  140.6340  170.8323 C.ar    1  UNL1        0.0111
     26 C         141.8818  140.6615  169.6399 C.ar    1  UNL1        0.0537
     27 CL        143.3415  140.9587  169.8166 Cl      1  UNL1       -0.0826
@<TRIPOS>BOND
     1     3     2    1
     2     3     4    1
     3     4     5    1
     4     5     1    1
     5     1    15    1
     6    15    16    1
     7    16    17    1
     8    17    18    1
     9    18    21    1
    10    21    22   ar
    11    22    23   ar
    12    23    24   ar
    13    24    25   ar
    14    25    26   ar
    15    26    27    1
    16    18    19    1
    17    19    20    1
    18     5     6    1
    19     6     7    1
    20     7     8    1
    21     8     9   ar
    22     9    10   ar
    23    10    11   ar
    24    11    12   ar
    25    12    13   ar
    26    13     3    1
    27    20    15    1
    28    13     8   ar
    29    26    21   ar
    30     2    14    1
