@<TRIPOS>MOLECULE
*****
 33 35 0 0 0
SMALL
GASTEIGER

@<TRIPOS>ATOM
      1 N         142.7179  140.6540  163.2209 N.pl3   1  UNL1       -0.3046
      2 C         143.5973  141.7952  162.8036 C.3     1  UNL1        0.1081
      3 C         143.5731  142.2808  161.3845 C.3     1  UNL1        0.0938
      4 N         142.6694  141.6251  160.3828 N.3     1  UNL1       -0.2698
      5 C         141.7900  140.4838  160.8002 C.3     1  UNL1        0.0938
      6 C         141.8142  139.9983  162.2192 C.3     1  UNL1        0.1081
      7 C         142.1231  140.4978  167.1416 C.ar    1  UNL1        0.0515
      8 C         142.7905  139.1973  167.4780 C.ar    1  UNL1        0.0148
      9 C         143.4338  138.3824  166.3954 C.ar    1  UNL1        0.0025
     10 C         143.4096  138.8679  164.9764 C.ar    1  UNL1        0.0146
     11 C         142.7421  140.1684  164.6400 C.ar    1  UNL1        0.0492
     12 C         142.0989  140.9833  165.7226 C.ar    1  UNL1        0.0292
     13 C         141.6141  143.2122  169.9917 C.3     1  UNL1        0.0949
     14 C         142.2574  142.3973  168.9090 C.2     1  UNL1        0.2266
     15 O         143.6784  142.6669  168.5113 O.2     1  UNL1       -0.2748
     16 N         141.4798  141.3127  168.2242 N.am    1  UNL1       -0.2839
     17 H         140.5471  141.1358  168.4853 H       1  UNL1        0.1549
     18 C         142.6452  142.1107  158.9638 C.3     1  UNL1        0.0722
     19 C         141.3591  142.5863  158.3558 C.3     1  UNL1        0.0188
     20 C         140.5546  143.6513  159.0403 C.3     1  UNL1        0.0206
     21 C         139.4623  143.2692  159.9947 C.3     1  UNL1        0.0955
     22 N         139.6404  143.4935  161.4670 N.3     1  UNL1       -0.1580
     23 C         140.7000  144.4341  161.9596 C.3     1  UNL1        0.1145
     24 S         138.7590  142.7773  162.4469 S.O2    1  UNL1        0.0438
     25 O         139.9059  142.6818  163.4088 O.2     1  UNL1       -0.1573
     26 O         137.6120  142.8728  161.4849 O.2     1  UNL1       -0.1573
     27 C         137.8775  142.0611  163.4267 C.3     1  UNL1        0.1690
     28 C         138.2360  140.6793  163.8873 C.3     1  UNL1        0.0253
     29 C         138.3618  139.5655  162.8905 C.3     1  UNL1        0.0018
     30 C         138.7202  138.1837  163.3510 C.3     1  UNL1        0.0001
     31 C         138.9529  137.9157  164.8085 C.3     1  UNL1        0.0000
     32 C         138.8271  139.0295  165.8053 C.3     1  UNL1        0.0001
     33 C         138.4686  140.4113  165.3447 C.3     1  UNL1        0.0018
@<TRIPOS>BOND
     1    13    14    1
     2    14    15    2
     3    14    16   am
     4    16     7    1
     5     7     8   ar
     6     8     9   ar
     7     9    10   ar
     8    10    11   ar
     9    11     1    1
    10     1     2    1
    11     2     3    1
    12     3     4    1
    13     4    18    1
    14    18    19    1
    15    19    20    1
    16    20    21    1
    17    21    22    1
    18    22    23    1
    19    22    24    1
    20    24    25    2
    21    24    26    2
    22    24    27    1
    23    27    28    1
    24    28    29    1
    25    29    30    1
    26    30    31    1
    27    31    32    1
    28    32    33    1
    29     4     5    1
    30     5     6    1
    31    11    12   ar
    32    12     7   ar
    33     6     1    1
    34    33    28    1
    35    16    17    1
@<TRIPOS>MOLECULE
*****
 33 35 0 0 0
SMALL
GASTEIGER

@<TRIPOS>ATOM
      1 N         140.6754  138.6398  164.2104 N.pl3   1  UNL1       -0.3046
      2 C         139.9127  138.3680  162.9478 C.3     1  UNL1        0.1081
      3 C         140.6497  138.0791  161.6737 C.3     1  UNL1        0.0938
      4 N         142.1496  138.0619  161.6623 N.3     1  UNL1       -0.2698
      5 C         142.9124  138.3337  162.9250 C.3     1  UNL1        0.0938
      6 C         142.1753  138.6226  164.1990 C.3     1  UNL1        0.1081
      7 C         139.8473  140.0496  167.8266 C.ar    1  UNL1        0.0515
      8 C         138.4643  139.5067  168.0327 C.ar    1  UNL1        0.0148
      9 C         137.8183  138.6747  166.9647 C.ar    1  UNL1        0.0025
     10 C         138.5554  138.3858  165.6906 C.ar    1  UNL1        0.0146
     11 C         139.9383  138.9287  165.4845 C.ar    1  UNL1        0.0492
     12 C         140.5843  139.7607  166.5525 C.ar    1  UNL1        0.0292
     13 C         141.3566  143.1810  169.7413 C.3     1  UNL1        0.0949
     14 C         140.7107  142.3491  168.6733 C.2     1  UNL1        0.2266
     15 O         140.2821  142.9848  167.3840 O.2     1  UNL1       -0.2748
     16 N         140.4933  140.8816  168.8946 N.am    1  UNL1       -0.2839
     17 H         140.7745  140.4644  169.7408 H       1  UNL1        0.1549
     18 C         142.8867  137.7730  160.3883 C.3     1  UNL1        0.0722
     19 C         143.0659  138.8539  159.3639 C.3     1  UNL1        0.0188
     20 C         143.7264  140.1458  159.7443 C.3     1  UNL1        0.0206
     21 C         142.9615  141.1807  160.5149 C.3     1  UNL1        0.0955
     22 N         143.5389  141.7575  161.7734 N.3     1  UNL1       -0.1580
     23 C         144.8743  141.2878  162.2698 C.3     1  UNL1        0.1145
     24 S         142.7811  142.8038  162.5355 S.O2    1  UNL1        0.0438
     25 O         143.2583  142.2086  163.8271 O.2     1  UNL1       -0.1573
     26 O         142.3040  143.3990  161.2440 O.2     1  UNL1       -0.1573
     27 C         142.0233  143.8501  163.2977 C.3     1  UNL1        0.1690
     28 C         140.6095  143.5896  163.7256 C.3     1  UNL1        0.0253
     29 C         139.7927  144.6939  164.3284 C.3     1  UNL1        0.0018
     30 C         138.3789  144.4334  164.7563 C.3     1  UNL1        0.0001
     31 C         137.7817  143.0685  164.5814 C.3     1  UNL1        0.0000
     32 C         138.5984  141.9642  163.9786 C.3     1  UNL1        0.0001
     33 C         140.0124  142.2248  163.5507 C.3     1  UNL1        0.0018
@<TRIPOS>BOND
     1    13    14    1
     2    14    15    2
     3    14    16   am
     4    16     7    1
     5     7     8   ar
     6     8     9   ar
     7     9    10   ar
     8    10    11   ar
     9    11     1    1
    10     1     2    1
    11     2     3    1
    12     3     4    1
    13     4    18    1
    14    18    19    1
    15    19    20    1
    16    20    21    1
    17    21    22    1
    18    22    23    1
    19    22    24    1
    20    24    25    2
    21    24    26    2
    22    24    27    1
    23    27    28    1
    24    28    29    1
    25    29    30    1
    26    30    31    1
    27    31    32    1
    28    32    33    1
    29     4     5    1
    30     5     6    1
    31    11    12   ar
    32    12     7   ar
    33     6     1    1
    34    33    28    1
    35    16    17    1
@<TRIPOS>MOLECULE
*****
 33 35 0 0 0
SMALL
GASTEIGER

@<TRIPOS>ATOM
      1 N         139.3369  142.5985  164.4877 N.pl3   1  UNL1       -0.3046
      2 C         138.3719  142.7511  163.3496 C.3     1  UNL1        0.1081
      3 C         138.5101  143.9027  162.3983 C.3     1  UNL1        0.0938
      4 N         139.6133  144.9017  162.5853 N.3     1  UNL1       -0.2698
      5 C         140.5784  144.7490  163.7235 C.3     1  UNL1        0.0938
      6 C         140.4402  143.5974  164.6747 C.3     1  UNL1        0.1081
      7 C         139.8931  140.2485  167.6370 C.ar    1  UNL1        0.0515
      8 C         138.9224  139.1438  167.3413 C.ar    1  UNL1        0.0148
      9 C         138.0899  139.1907  166.0945 C.ar    1  UNL1        0.0025
     10 C         138.2280  140.3422  165.1433 C.ar    1  UNL1        0.0146
     11 C         139.1987  141.4469  165.4389 C.ar    1  UNL1        0.0492
     12 C         140.0313  141.4000  166.6858 C.ar    1  UNL1        0.0292
     13 C         141.0048  140.6798  171.4222 C.3     1  UNL1        0.0949
     14 C         140.1723  140.7267  170.1754 C.2     1  UNL1        0.2266
     15 O         138.7863  141.2987  170.2200 O.2     1  UNL1       -0.2748
     16 N         140.7256  140.2016  168.8839 N.am    1  UNL1       -0.2839
     17 H         141.6353  139.8262  168.8546 H       1  UNL1        0.1549
     18 C         139.7516  146.0532  161.6342 C.3     1  UNL1        0.0722
     19 C         140.1528  145.8058  160.2102 C.3     1  UNL1        0.0188
     20 C         141.3947  145.0213  159.9064 C.3     1  UNL1        0.0206
     21 C         141.3597  143.5219  159.9320 C.3     1  UNL1        0.0955
     22 N         142.3124  142.7645  160.8088 N.3     1  UNL1       -0.1580
     23 C         143.3400  143.5034  161.6138 C.3     1  UNL1        0.1145
     24 S         142.2374  141.2681  160.8805 S.O2    1  UNL1        0.0438
     25 O         140.7490  141.3506  161.0473 O.2     1  UNL1       -0.1573
     26 O         143.7259  141.1855  160.7138 O.2     1  UNL1       -0.1573
     27 C         142.1625  139.7716  160.9523 C.3     1  UNL1        0.1690
     28 C         141.9077  139.0956  162.2668 C.3     1  UNL1        0.0253
     29 C         141.1537  137.7997  162.3101 C.3     1  UNL1        0.0018
     30 C         140.8989  137.1237  163.6246 C.3     1  UNL1        0.0001
     31 C         141.3982  137.7436  164.8960 C.3     1  UNL1        0.0000
     32 C         142.1523  139.0396  164.8528 C.3     1  UNL1        0.0001
     33 C         142.4070  139.7156  163.5382 C.3     1  UNL1        0.0018
@<TRIPOS>BOND
     1    13    14    1
     2    14    15    2
     3    14    16   am
     4    16     7    1
     5     7     8   ar
     6     8     9   ar
     7     9    10   ar
     8    10    11   ar
     9    11     1    1
    10     1     2    1
    11     2     3    1
    12     3     4    1
    13     4    18    1
    14    18    19    1
    15    19    20    1
    16    20    21    1
    17    21    22    1
    18    22    23    1
    19    22    24    1
    20    24    25    2
    21    24    26    2
    22    24    27    1
    23    27    28    1
    24    28    29    1
    25    29    30    1
    26    30    31    1
    27    31    32    1
    28    32    33    1
    29     4     5    1
    30     5     6    1
    31    11    12   ar
    32    12     7   ar
    33     6     1    1
    34    33    28    1
    35    16    17    1
@<TRIPOS>MOLECULE
*****
 33 35 0 0 0
SMALL
GASTEIGER

@<TRIPOS>ATOM
      1 N         142.3675  141.3488  163.6115 N.pl3   1  UNL1       -0.3046
      2 C         142.5538  140.6529  162.2958 C.3     1  UNL1        0.1081
      3 C         142.4072  141.4192  161.0146 C.3     1  UNL1        0.0938
      4 N         142.0743  142.8814  161.0492 N.3     1  UNL1       -0.2698
      5 C         141.8881  143.5773  162.3650 C.3     1  UNL1        0.0938
      6 C         142.0347  142.8110  163.6460 C.3     1  UNL1        0.1081
      7 C         141.9148  140.2543  167.3993 C.ar    1  UNL1        0.0515
      8 C         142.8074  139.0501  167.4550 C.ar    1  UNL1        0.0148
      9 C         143.5533  138.6121  166.2295 C.ar    1  UNL1        0.0025
     10 C         143.4067  139.3783  164.9484 C.ar    1  UNL1        0.0146
     11 C         142.5142  140.5825  164.8927 C.ar    1  UNL1        0.0492
     12 C         141.7682  141.0206  166.1181 C.ar    1  UNL1        0.0292
     13 C         139.0062  140.6864  170.0645 C.3     1  UNL1        0.0949
     14 C         139.7522  140.2484  168.8391 C.2     1  UNL1        0.2266
     15 O         139.0814  139.3665  167.8280 O.2     1  UNL1       -0.2748
     16 N         141.1689  140.6924  168.6247 N.am    1  UNL1       -0.2839
     17 H         141.6091  141.2712  169.2883 H       1  UNL1        0.1549
     18 C         141.9277  143.6477  159.7681 C.3     1  UNL1        0.0722
     19 C         141.1043  143.0850  158.6477 C.3     1  UNL1        0.0188
     20 C         139.6136  143.2521  158.6552 C.3     1  UNL1        0.0206
     21 C         138.8084  142.7499  159.8168 C.3     1  UNL1        0.0955
     22 N         138.3001  141.3387  159.8229 N.3     1  UNL1       -0.1580
     23 C         138.0070  140.6416  158.5274 C.3     1  UNL1        0.1145
     24 S         138.0850  140.6246  161.1243 S.O2    1  UNL1        0.0438
     25 O         137.1969  139.6327  160.4332 O.2     1  UNL1       -0.1573
     26 O         138.9730  141.6165  161.8154 O.2     1  UNL1       -0.1573
     27 C         137.8698  139.9105  162.4257 C.3     1  UNL1        0.1690
     28 C         138.9103  138.9610  162.9412 C.3     1  UNL1        0.0253
     29 C         139.8956  138.3420  161.9946 C.3     1  UNL1        0.0018
     30 C         140.9361  137.3925  162.5101 C.3     1  UNL1        0.0001
     31 C         140.9913  137.0619  163.9722 C.3     1  UNL1        0.0000
     32 C         140.0060  137.6809  164.9188 C.3     1  UNL1        0.0001
     33 C         138.9654  138.6304  164.4032 C.3     1  UNL1        0.0018
@<TRIPOS>BOND
     1    13    14    1
     2    14    15    2
     3    14    16   am
     4    16     7    1
     5     7     8   ar
     6     8     9   ar
     7     9    10   ar
     8    10    11   ar
     9    11     1    1
    10     1     2    1
    11     2     3    1
    12     3     4    1
    13     4    18    1
    14    18    19    1
    15    19    20    1
    16    20    21    1
    17    21    22    1
    18    22    23    1
    19    22    24    1
    20    24    25    2
    21    24    26    2
    22    24    27    1
    23    27    28    1
    24    28    29    1
    25    29    30    1
    26    30    31    1
    27    31    32    1
    28    32    33    1
    29     4     5    1
    30     5     6    1
    31    11    12   ar
    32    12     7   ar
    33     6     1    1
    34    33    28    1
    35    16    17    1
@<TRIPOS>MOLECULE
*****
 33 35 0 0 0
SMALL
GASTEIGER

@<TRIPOS>ATOM
      1 N         139.5876  142.4396  164.2714 N.pl3   1  UNL1       -0.3046
      2 C         140.9861  142.9323  164.0446 C.3     1  UNL1        0.1081
      3 C         141.2481  144.0045  163.0288 C.3     1  UNL1        0.0938
      4 N         140.1115  144.5840  162.2398 N.3     1  UNL1       -0.2698
      5 C         138.7130  144.0912  162.4667 C.3     1  UNL1        0.0938
      6 C         138.4511  143.0190  163.4824 C.3     1  UNL1        0.1081
      7 C         139.7366  140.3506  167.6424 C.ar    1  UNL1        0.0515
      8 C         138.8018  139.2230  167.3187 C.ar    1  UNL1        0.0148
      9 C         138.1290  139.1676  165.9792 C.ar    1  UNL1        0.0025
     10 C         138.3910  140.2398  164.9634 C.ar    1  UNL1        0.0146
     11 C         139.3257  141.3673  165.2872 C.ar    1  UNL1        0.0492
     12 C         139.9985  141.4227  166.6267 C.ar    1  UNL1        0.0292
     13 C         142.4998  139.9938  170.4686 C.3     1  UNL1        0.0949
     14 C         141.8270  139.9384  169.1291 C.2     1  UNL1        0.2266
     15 O         142.5718  139.4153  167.9367 O.2     1  UNL1       -0.2748
     16 N         140.4094  140.4060  168.9819 N.am    1  UNL1       -0.2839
     17 H         139.9205  140.7493  169.7645 H       1  UNL1        0.1549
     18 C         140.3734  145.6562  161.2241 C.3     1  UNL1        0.0722
     19 C         140.2771  145.3423  159.7605 C.3     1  UNL1        0.0188
     20 C         141.2944  144.4473  159.1168 C.3     1  UNL1        0.0206
     21 C         141.1256  142.9580  159.1731 C.3     1  UNL1        0.0955
     22 N         142.1078  142.1202  159.9368 N.3     1  UNL1       -0.1580
     23 C         143.4325  142.6975  160.3394 C.3     1  UNL1        0.1145
     24 S         141.7654  140.7052  160.2980 S.O2    1  UNL1        0.0438
     25 O         143.0802  140.2450  159.7415 O.2     1  UNL1       -0.1573
     26 O         140.4507  141.1653  160.8545 O.2     1  UNL1       -0.1573
     27 C         141.4230  139.2901  160.6592 C.3     1  UNL1        0.1690
     28 C         141.4520  138.8543  162.0941 C.3     1  UNL1        0.0253
     29 C         142.3675  139.5368  163.0669 C.3     1  UNL1        0.0018
     30 C         142.3965  139.1010  164.5018 C.3     1  UNL1        0.0001
     31 C         141.5100  137.9827  164.9641 C.3     1  UNL1        0.0000
     32 C         140.5945  137.3003  163.9914 C.3     1  UNL1        0.0001
     33 C         140.5656  137.7361  162.5564 C.3     1  UNL1        0.0018
@<TRIPOS>BOND
     1    13    14    1
     2    14    15    2
     3    14    16   am
     4    16     7    1
     5     7     8   ar
     6     8     9   ar
     7     9    10   ar
     8    10    11   ar
     9    11     1    1
    10     1     2    1
    11     2     3    1
    12     3     4    1
    13     4    18    1
    14    18    19    1
    15    19    20    1
    16    20    21    1
    17    21    22    1
    18    22    23    1
    19    22    24    1
    20    24    25    2
    21    24    26    2
    22    24    27    1
    23    27    28    1
    24    28    29    1
    25    29    30    1
    26    30    31    1
    27    31    32    1
    28    32    33    1
    29     4     5    1
    30     5     6    1
    31    11    12   ar
    32    12     7   ar
    33     6     1    1
    34    33    28    1
    35    16    17    1
@<TRIPOS>MOLECULE
*****
 33 35 0 0 0
SMALL
GASTEIGER

@<TRIPOS>ATOM
      1 N         142.6017  142.2516  165.2092 N.pl3   1  UNL1       -0.3046
      2 C         142.5589  143.6824  164.7608 C.3     1  UNL1        0.1081
      3 C         142.7377  144.0194  163.3101 C.3     1  UNL1        0.0938
      4 N         142.9595  142.9256  162.3079 N.3     1  UNL1       -0.2698
      5 C         143.0023  141.4948  162.7564 C.3     1  UNL1        0.0938
      6 C         142.8234  141.1579  164.2070 C.3     1  UNL1        0.1081
      7 C         141.0787  140.7402  168.5478 C.ar    1  UNL1        0.0515
      8 C         142.0650  141.2405  169.5612 C.ar    1  UNL1        0.0148
      9 C         143.2301  142.0780  169.1239 C.ar    1  UNL1        0.0025
     10 C         143.4090  142.4150  167.6733 C.ar    1  UNL1        0.0146
     11 C         142.4228  141.9146  166.6600 C.ar    1  UNL1        0.0492
     12 C         141.2577  141.0772  167.0972 C.ar    1  UNL1        0.0292
     13 C         137.7528  139.6172  170.3991 C.3     1  UNL1        0.0949
     14 C         138.9180  140.4546  169.9618 C.2     1  UNL1        0.2266
     15 O         139.0874  141.8440  170.5013 O.2     1  UNL1       -0.2748
     16 N         139.9136  139.9027  168.9851 N.am    1  UNL1       -0.2839
     17 H         139.8024  138.9909  168.6310 H       1  UNL1        0.1549
     18 C         143.1384  143.2626  160.8572 C.3     1  UNL1        0.0722
     19 C         142.0378  142.9754  159.8794 C.3     1  UNL1        0.0188
     20 C         140.8018  143.8252  159.8703 C.3     1  UNL1        0.0206
     21 C         139.7867  143.6844  160.9656 C.3     1  UNL1        0.0955
     22 N         138.9344  142.4526  161.0443 N.3     1  UNL1       -0.1580
     23 C         138.6132  141.6819  159.7982 C.3     1  UNL1        0.1145
     24 S         138.4033  141.9915  162.3692 S.O2    1  UNL1        0.0438
     25 O         137.1847  141.4414  161.6893 O.2     1  UNL1       -0.1573
     26 O         139.6219  142.5417  163.0492 O.2     1  UNL1       -0.1573
     27 C         137.8722  141.5305  163.6941 C.3     1  UNL1        0.1690
     28 C         138.2186  140.1640  164.2065 C.3     1  UNL1        0.0253
     29 C         138.0556  139.8456  165.6633 C.3     1  UNL1        0.0018
     30 C         138.4020  138.4791  166.1757 C.3     1  UNL1        0.0001
     31 C         138.9115  137.4309  165.2314 C.3     1  UNL1        0.0000
     32 C         139.0746  137.7492  163.7746 C.3     1  UNL1        0.0001
     33 C         138.7281  139.1158  163.2622 C.3     1  UNL1        0.0018
@<TRIPOS>BOND
     1    13    14    1
     2    14    15    2
     3    14    16   am
     4    16     7    1
     5     7     8   ar
     6     8     9   ar
     7     9    10   ar
     8    10    11   ar
     9    11     1    1
    10     1     2    1
    11     2     3    1
    12     3     4    1
    13     4    18    1
    14    18    19    1
    15    19    20    1
    16    20    21    1
    17    21    22    1
    18    22    23    1
    19    22    24    1
    20    24    25    2
    21    24    26    2
    22    24    27    1
    23    27    28    1
    24    28    29    1
    25    29    30    1
    26    30    31    1
    27    31    32    1
    28    32    33    1
    29     4     5    1
    30     5     6    1
    31    11    12   ar
    32    12     7   ar
    33     6     1    1
    34    33    28    1
    35    16    17    1
@<TRIPOS>MOLECULE
*****
 33 35 0 0 0
SMALL
GASTEIGER

@<TRIPOS>ATOM
      1 N         142.5810  141.9039  165.1889 N.pl3   1  UNL1       -0.3046
      2 C         141.4346  141.7262  164.2381 C.3     1  UNL1        0.1081
      3 C         141.6409  141.9351  162.7670 C.3     1  UNL1        0.0938
      4 N         142.9937  142.3216  162.2469 N.3     1  UNL1       -0.2698
      5 C         144.1402  142.4993  163.1978 C.3     1  UNL1        0.0938
      6 C         143.9338  142.2905  164.6687 C.3     1  UNL1        0.1081
      7 C         141.0136  140.6612  168.6165 C.ar    1  UNL1        0.0515
      8 C         141.9619  141.2774  169.6018 C.ar    1  UNL1        0.0148
      9 C         143.1167  142.1025  169.1162 C.ar    1  UNL1        0.0025
     10 C         143.3230  142.3114  167.6452 C.ar    1  UNL1        0.0146
     11 C         142.3747  141.6951  166.6599 C.ar    1  UNL1        0.0492
     12 C         141.2200  140.8700  167.1456 C.ar    1  UNL1        0.0292
     13 C         137.6923  139.6112  170.5183 C.3     1  UNL1        0.0949
     14 C         138.8470  140.4363  170.0326 C.2     1  UNL1        0.2266
     15 O         138.9898  141.8618  170.4774 O.2     1  UNL1       -0.2748
     16 N         139.8589  139.8361  169.1022 N.am    1  UNL1       -0.2839
     17 H         139.7652  138.9005  168.8103 H       1  UNL1        0.1549
     18 C         143.2001  142.5304  160.7759 C.3     1  UNL1        0.0722
     19 C         144.0752  141.5908  160.0006 C.3     1  UNL1        0.0188
     20 C         143.4697  140.4190  159.2861 C.3     1  UNL1        0.0206
     21 C         142.1215  139.9053  159.6967 C.3     1  UNL1        0.0955
     22 N         142.0099  138.8752  160.7812 N.3     1  UNL1       -0.1580
     23 C         143.2464  138.2281  161.3311 C.3     1  UNL1        0.1145
     24 S         140.6618  138.4920  161.3158 S.O2    1  UNL1        0.0438
     25 O         141.2755  137.3204  162.0235 O.2     1  UNL1       -0.1573
     26 O         140.0482  139.6636  160.6082 O.2     1  UNL1       -0.1573
     27 C         139.3137  138.1089  161.8504 C.3     1  UNL1        0.1690
     28 C         138.9019  138.5416  163.2263 C.3     1  UNL1        0.0253
     29 C         138.3842  139.9312  163.4520 C.3     1  UNL1        0.0018
     30 C         137.9724  140.3640  164.8278 C.3     1  UNL1        0.0001
     31 C         138.0782  139.4070  165.9782 C.3     1  UNL1        0.0000
     32 C         138.5959  138.0174  165.7525 C.3     1  UNL1        0.0001
     33 C         139.0077  137.5847  164.3765 C.3     1  UNL1        0.0018
@<TRIPOS>BOND
     1    13    14    1
     2    14    15    2
     3    14    16   am
     4    16     7    1
     5     7     8   ar
     6     8     9   ar
     7     9    10   ar
     8    10    11   ar
     9    11     1    1
    10     1     2    1
    11     2     3    1
    12     3     4    1
    13     4    18    1
    14    18    19    1
    15    19    20    1
    16    20    21    1
    17    21    22    1
    18    22    23    1
    19    22    24    1
    20    24    25    2
    21    24    26    2
    22    24    27    1
    23    27    28    1
    24    28    29    1
    25    29    30    1
    26    30    31    1
    27    31    32    1
    28    32    33    1
    29     4     5    1
    30     5     6    1
    31    11    12   ar
    32    12     7   ar
    33     6     1    1
    34    33    28    1
    35    16    17    1
@<TRIPOS>MOLECULE
*****
 33 35 0 0 0
SMALL
GASTEIGER

@<TRIPOS>ATOM
      1 N         139.4258  142.5257  164.4887 N.pl3   1  UNL1       -0.3046
      2 C         140.8063  143.0638  164.2550 C.3     1  UNL1        0.1081
      3 C         141.0209  144.1784  163.2743 C.3     1  UNL1        0.0938
      4 N         139.8548  144.7549  162.5274 N.3     1  UNL1       -0.2698
      5 C         138.4743  144.2168  162.7611 C.3     1  UNL1        0.0938
      6 C         138.2598  143.1023  163.7418 C.3     1  UNL1        0.1081
      7 C         139.7446  140.2874  167.7504 C.ar    1  UNL1        0.0515
      8 C         138.7823  139.1821  167.4308 C.ar    1  UNL1        0.0148
      9 C         138.0345  139.1913  166.1305 C.ar    1  UNL1        0.0025
     10 C         138.2490  140.3058  165.1499 C.ar    1  UNL1        0.0146
     11 C         139.2113  141.4111  165.4694 C.ar    1  UNL1        0.0492
     12 C         139.9591  141.4019  166.7697 C.ar    1  UNL1        0.0292
     13 C         142.6715  139.8218  170.3898 C.3     1  UNL1        0.0949
     14 C         141.9237  139.8310  169.0895 C.2     1  UNL1        0.2266
     15 O         142.6072  139.3931  167.8281 O.2     1  UNL1       -0.2748
     16 N         140.4925  140.2782  169.0506 N.am    1  UNL1       -0.2839
     17 H         140.0439  140.5656  169.8785 H       1  UNL1        0.1549
     18 C         140.0693  145.8694  161.5467 C.3     1  UNL1        0.0722
     19 C         140.5801  145.5682  160.1690 C.3     1  UNL1        0.0188
     20 C         140.0741  144.3663  159.4276 C.3     1  UNL1        0.0206
     21 C         140.6308  143.0074  159.7331 C.3     1  UNL1        0.0955
     22 N         139.7675  141.7908  159.5767 N.3     1  UNL1       -0.1580
     23 C         138.4016  141.9134  158.9688 C.3     1  UNL1        0.1145
     24 S         140.2700  140.4515  160.0282 S.O2    1  UNL1        0.0438
     25 O         141.5707  140.7023  159.3246 O.2     1  UNL1       -0.1573
     26 O         138.9692  140.2007  160.7319 O.2     1  UNL1       -0.1573
     27 C         140.7725  139.1122  160.4797 C.3     1  UNL1        0.1690
     28 C         140.9970  138.8485  161.9392 C.3     1  UNL1        0.0253
     29 C         140.3698  137.6515  162.5902 C.3     1  UNL1        0.0018
     30 C         140.5943  137.3878  164.0496 C.3     1  UNL1        0.0001
     31 C         141.4461  138.3210  164.8581 C.3     1  UNL1        0.0000
     32 C         142.0733  139.5180  164.2071 C.3     1  UNL1        0.0001
     33 C         141.8487  139.7817  162.7476 C.3     1  UNL1        0.0018
@<TRIPOS>BOND
     1    13    14    1
     2    14    15    2
     3    14    16   am
     4    16     7    1
     5     7     8   ar
     6     8     9   ar
     7     9    10   ar
     8    10    11   ar
     9    11     1    1
    10     1     2    1
    11     2     3    1
    12     3     4    1
    13     4    18    1
    14    18    19    1
    15    19    20    1
    16    20    21    1
    17    21    22    1
    18    22    23    1
    19    22    24    1
    20    24    25    2
    21    24    26    2
    22    24    27    1
    23    27    28    1
    24    28    29    1
    25    29    30    1
    26    30    31    1
    27    31    32    1
    28    32    33    1
    29     4     5    1
    30     5     6    1
    31    11    12   ar
    32    12     7   ar
    33     6     1    1
    34    33    28    1
    35    16    17    1
@<TRIPOS>MOLECULE
*****
 33 35 0 0 0
SMALL
GASTEIGER

@<TRIPOS>ATOM
      1 N         139.0259  139.7690  165.7093 N.pl3   1  UNL1       -0.3046
      2 C         138.3700  140.7474  164.7806 C.3     1  UNL1        0.1081
      3 C         138.0242  140.3362  163.3801 C.3     1  UNL1        0.0938
      4 N         138.3344  138.9465  162.9083 N.3     1  UNL1       -0.2698
      5 C         138.9903  137.9680  163.8371 C.3     1  UNL1        0.0938
      6 C         139.3360  138.3793  165.2375 C.3     1  UNL1        0.1081
      7 C         140.8894  141.4940  168.7592 C.ar    1  UNL1        0.0515
      8 C         140.0632  141.0028  169.9107 C.ar    1  UNL1        0.0148
      9 C         138.8912  140.1003  169.6618 C.ar    1  UNL1        0.0025
     10 C         138.5454  139.6890  168.2613 C.ar    1  UNL1        0.0146
     11 C         139.3716  140.1803  167.1098 C.ar    1  UNL1        0.0492
     12 C         140.5436  141.0828  167.3587 C.ar    1  UNL1        0.0292
     13 C         144.4795  142.7531  169.8884 C.3     1  UNL1        0.0949
     14 C         143.3076  141.8506  169.6395 C.2     1  UNL1        0.2266
     15 O         143.3819  140.4020  170.0220 O.2     1  UNL1       -0.2748
     16 N         142.0613  142.3966  169.0081 N.am    1  UNL1       -0.2839
     17 H         142.0125  143.3473  168.7570 H       1  UNL1        0.1549
     18 C         137.9887  138.5352  161.5079 C.3     1  UNL1        0.0722
     19 C         139.0673  138.0707  160.5748 C.3     1  UNL1        0.0188
     20 C         140.2509  138.9501  160.2995 C.3     1  UNL1        0.0206
     21 C         141.5981  138.5890  160.8515 C.3     1  UNL1        0.0955
     22 N         142.5300  139.6668  161.3203 N.3     1  UNL1       -0.1580
     23 C         143.9645  139.6611  160.8816 C.3     1  UNL1        0.1145
     24 S         142.0275  140.7504  162.2276 S.O2    1  UNL1        0.0438
     25 O         142.0950  141.7307  161.0943 O.2     1  UNL1       -0.1573
     26 O         141.9601  139.7700  163.3610 O.2     1  UNL1       -0.1573
     27 C         141.5251  141.8340  163.1350 C.3     1  UNL1        0.1690
     28 C         142.4974  142.7298  163.8435 C.3     1  UNL1        0.0253
     29 C         143.2433  142.2268  165.0438 C.3     1  UNL1        0.0018
     30 C         144.2156  143.1226  165.7523 C.3     1  UNL1        0.0001
     31 C         144.4421  144.5215  165.2605 C.3     1  UNL1        0.0000
     32 C         143.6963  145.0245  164.0602 C.3     1  UNL1        0.0001
     33 C         142.7239  144.1286  163.3517 C.3     1  UNL1        0.0018
@<TRIPOS>BOND
     1    13    14    1
     2    14    15    2
     3    14    16   am
     4    16     7    1
     5     7     8   ar
     6     8     9   ar
     7     9    10   ar
     8    10    11   ar
     9    11     1    1
    10     1     2    1
    11     2     3    1
    12     3     4    1
    13     4    18    1
    14    18    19    1
    15    19    20    1
    16    20    21    1
    17    21    22    1
    18    22    23    1
    19    22    24    1
    20    24    25    2
    21    24    26    2
    22    24    27    1
    23    27    28    1
    24    28    29    1
    25    29    30    1
    26    30    31    1
    27    31    32    1
    28    32    33    1
    29     4     5    1
    30     5     6    1
    31    11    12   ar
    32    12     7   ar
    33     6     1    1
    34    33    28    1
    35    16    17    1
