@<TRIPOS>MOLECULE
*****
 31 33 0 0 0
SMALL
GASTEIGER

@<TRIPOS>ATOM
      1 C         140.9169  143.1524  164.7217 C.ar    1  UNL1        0.1143
      2 C         140.2216  144.2865  164.0287 C.ar    1  UNL1        0.0850
      3 CL        139.1946  145.1948  164.6373 Cl      1  UNL1       -0.0799
      4 C         140.7334  144.3528  162.6203 C.ar    1  UNL1        0.0574
      5 C         140.4090  145.2674  161.4765 C.ar    1  UNL1        0.0631
      6 CL        139.3973  146.3606  161.6540 Cl      1  UNL1       -0.0821
      7 C         141.0963  145.0888  160.1553 C.ar    1  UNL1        0.0353
      8 C         142.1080  143.9957  159.9778 C.ar    1  UNL1        0.1366
      9 N         142.4324  143.0811  161.1216 N.ar    1  UNL1       -0.2236
     10 C         141.7451  143.2597  162.4428 C.ar    1  UNL1        0.1460
     11 N         141.8585  142.5178  163.7416 N.ar    1  UNL1       -0.3061
     12 C         142.7560  141.3468  164.0126 C.3     1  UNL1        0.1031
     13 C         144.2433  141.5360  164.0561 C.3     1  UNL1        0.0255
     14 C         145.1407  140.3651  164.3271 C.3     1  UNL1        0.0191
     15 C         144.5509  139.0048  164.5546 C.3     1  UNL1        0.0687
     16 N         143.0635  138.8156  164.5111 N.3     1  UNL1       -0.2959
     17 C         142.1660  139.9865  164.2401 C.3     1  UNL1        0.0914
     18 H         142.7882  138.4371  165.4174 H       1  UNL1        0.1233
     19 C         142.7953  143.8171  158.6565 C.2     1  UNL1        0.2606
     20 N         142.8084  144.9385  157.6603 N.am    1  UNL1       -0.3241
     21 O         143.4694  142.5172  158.3314 O.2     1  UNL1       -0.2687
     22 H         142.3659  145.7917  157.8737 H       1  UNL1        0.1453
     23 H         143.2595  144.8213  156.7931 H       1  UNL1        0.1453
     24 C         140.4979  142.3025  167.5681 C.1     1  UNL1       -0.0844
     25 C         140.7074  142.7274  166.1449 C.1     1  UNL1       -0.0460
     26 C         140.2884  141.8776  168.9914 C.3     1  UNL1        0.0817
     27 C         140.6467  143.2580  169.4562 C.3     1  UNL1        0.0156
     28 C         139.9301  140.4972  168.5265 C.3     1  UNL1        0.0156
     29 C         140.0789  141.4526  170.4146 C.3     1  UNL1        0.1541
     30 C         142.4303  140.5621  171.0685 C.3     1  UNL1        0.1741
     31 O         141.2378  141.4217  171.3664 O.3     1  UNL1       -0.3501
@<TRIPOS>BOND
     1    30    31    1
     2    31    29    1
     3    29    26    1
     4    26    27    1
     5    26    28    1
     6    26    24    1
     7    24    25    3
     8    25     1    1
     9     1     2   ar
    10     2     3    1
    11     2     4   ar
    12     4     5   ar
    13     5     6    1
    14     5     7   ar
    15     7     8   ar
    16     8    19    1
    17    19    20   am
    18    19    21    2
    19     8     9   ar
    20     9    10   ar
    21    10    11   ar
    22    12    11    1
    23    12    13    1
    24    13    14    1
    25    14    15    1
    26    15    16    1
    27    16    17    1
    28    11     1   ar
    29    17    12    1
    30    10     4   ar
    31    20    22    1
    32    20    23    1
    33    16    18    1
@<TRIPOS>MOLECULE
*****
 31 33 0 0 0
SMALL
GASTEIGER

@<TRIPOS>ATOM
      1 C         141.8851  140.5997  164.8506 C.ar    1  UNL1        0.1143
      2 C         142.3765  139.7279  165.9680 C.ar    1  UNL1        0.0850
      3 CL        143.1433  138.4478  165.8155 Cl      1  UNL1       -0.0799
      4 C         141.9665  140.3610  167.2645 C.ar    1  UNL1        0.0574
      5 C         142.1751  139.9505  168.6921 C.ar    1  UNL1        0.0631
      6 CL        142.9199  138.6874  169.0081 Cl      1  UNL1       -0.0821
      7 C         141.6389  140.8031  169.8036 C.ar    1  UNL1        0.0353
      8 C         140.8941  142.0662  169.4876 C.ar    1  UNL1        0.1366
      9 N         140.6855  142.4767  168.0601 N.ar    1  UNL1       -0.2236
     10 C         141.2217  141.6241  166.9485 C.ar    1  UNL1        0.1460
     11 N         141.1714  141.7716  165.4566 N.ar    1  UNL1       -0.3061
     12 C         140.5215  142.8940  164.7031 C.3     1  UNL1        0.1031
     13 C         139.0835  142.7865  164.2901 C.3     1  UNL1        0.0255
     14 C         138.4336  143.9089  163.5366 C.3     1  UNL1        0.0191
     15 C         139.2217  145.1389  163.1960 C.3     1  UNL1        0.0687
     16 N         140.6597  145.2465  163.6090 N.3     1  UNL1       -0.2959
     17 C         141.3096  144.1241  164.3625 C.3     1  UNL1        0.0914
     18 H         140.7363  146.0778  164.1950 H       1  UNL1        0.1233
     19 C         140.3580  142.9189  170.5992 C.2     1  UNL1        0.2606
     20 N         139.9476  144.3356  170.3267 N.am    1  UNL1       -0.3241
     21 O         140.2322  142.3546  171.9833 O.2     1  UNL1       -0.2687
     22 H         140.0302  144.7059  169.4182 H       1  UNL1        0.1453
     23 H         139.5957  144.8952  171.0563 H       1  UNL1        0.1453
     24 C         142.2633  140.0892  161.9187 C.1     1  UNL1       -0.0844
     25 C         142.0742  140.3445  163.3846 C.1     1  UNL1       -0.0460
     26 C         142.4524  139.8339  160.4527 C.3     1  UNL1        0.0817
     27 C         143.7958  139.2277  160.7315 C.3     1  UNL1        0.0156
     28 C         141.1090  140.4401  160.1738 C.3     1  UNL1        0.0156
     29 C         142.6415  139.5786  158.9867 C.3     1  UNL1        0.1541
     30 C         142.6058  137.3781  157.6060 C.3     1  UNL1        0.1741
     31 O         143.3207  138.3233  158.5255 O.3     1  UNL1       -0.3501
@<TRIPOS>BOND
     1    30    31    1
     2    31    29    1
     3    29    26    1
     4    26    27    1
     5    26    28    1
     6    26    24    1
     7    24    25    3
     8    25     1    1
     9     1     2   ar
    10     2     3    1
    11     2     4   ar
    12     4     5   ar
    13     5     6    1
    14     5     7   ar
    15     7     8   ar
    16     8    19    1
    17    19    20   am
    18    19    21    2
    19     8     9   ar
    20     9    10   ar
    21    10    11   ar
    22    12    11    1
    23    12    13    1
    24    13    14    1
    25    14    15    1
    26    15    16    1
    27    16    17    1
    28    11     1   ar
    29    17    12    1
    30    10     4   ar
    31    20    22    1
    32    20    23    1
    33    16    18    1
@<TRIPOS>MOLECULE
*****
 31 33 0 0 0
SMALL
GASTEIGER

@<TRIPOS>ATOM
      1 C         140.5214  142.6801  164.6661 C.ar    1  UNL1        0.1143
      2 C         140.7415  143.7913  163.6829 C.ar    1  UNL1        0.0850
      3 CL        141.3961  145.1092  163.9739 Cl      1  UNL1       -0.0799
      4 C         140.1923  143.3533  162.3575 C.ar    1  UNL1        0.0574
      5 C         140.1294  144.0342  161.0225 C.ar    1  UNL1        0.0631
      6 CL        140.6891  145.4162  160.8584 Cl      1  UNL1       -0.0821
      7 C         139.5070  143.3332  159.8517 C.ar    1  UNL1        0.0353
      8 C         138.9473  141.9512  160.0158 C.ar    1  UNL1        0.1366
      9 N         139.0102  141.2703  161.3507 N.ar    1  UNL1       -0.2236
     10 C         139.6327  141.9713  162.5216 C.ar    1  UNL1        0.1460
     11 N         139.8361  141.5552  163.9484 N.ar    1  UNL1       -0.3061
     12 C         139.4261  140.2444  164.5515 C.3     1  UNL1        0.1031
     13 C         138.3718  140.2065  165.6177 C.3     1  UNL1        0.0255
     14 C         137.9618  138.8957  166.2208 C.3     1  UNL1        0.0191
     15 C         138.6062  137.6228  165.7577 C.3     1  UNL1        0.0687
     16 N         139.6606  137.6607  164.6915 N.3     1  UNL1       -0.2959
     17 C         140.0706  138.9715  164.0884 C.3     1  UNL1        0.0914
     18 H         139.3260  137.0760  163.9257 H       1  UNL1        0.1233
     19 C         138.3248  141.2502  158.8448 C.2     1  UNL1        0.2606
     20 N         138.1663  139.7587  158.8611 N.am    1  UNL1       -0.3241
     21 O         137.8608  142.0408  157.6574 O.2     1  UNL1       -0.2687
     22 H         138.4709  139.2399  159.6404 H       1  UNL1        0.1453
     23 H         137.7578  139.2987  158.0926 H       1  UNL1        0.1453
     24 C         141.3128  142.7032  167.5597 C.1     1  UNL1       -0.0844
     25 C         140.9171  142.6916  166.1129 C.1     1  UNL1       -0.0460
     26 C         141.7085  142.7148  169.0065 C.3     1  UNL1        0.0817
     27 C         140.4348  143.4292  169.3492 C.3     1  UNL1        0.0156
     28 C         142.9821  142.0003  168.6639 C.3     1  UNL1        0.0156
     29 C         142.1042  142.7263  170.4533 C.3     1  UNL1        0.1541
     30 C         140.9043  140.6142  171.3747 C.3     1  UNL1        0.1741
     31 O         141.2216  142.0766  171.4775 O.3     1  UNL1       -0.3501
@<TRIPOS>BOND
     1    30    31    1
     2    31    29    1
     3    29    26    1
     4    26    27    1
     5    26    28    1
     6    26    24    1
     7    24    25    3
     8    25     1    1
     9     1     2   ar
    10     2     3    1
    11     2     4   ar
    12     4     5   ar
    13     5     6    1
    14     5     7   ar
    15     7     8   ar
    16     8    19    1
    17    19    20   am
    18    19    21    2
    19     8     9   ar
    20     9    10   ar
    21    10    11   ar
    22    12    11    1
    23    12    13    1
    24    13    14    1
    25    14    15    1
    26    15    16    1
    27    16    17    1
    28    11     1   ar
    29    17    12    1
    30    10     4   ar
    31    20    22    1
    32    20    23    1
    33    16    18    1
@<TRIPOS>MOLECULE
*****
 31 33 0 0 0
SMALL
GASTEIGER

@<TRIPOS>ATOM
      1 C         140.0115  141.4357  164.4211 C.ar    1  UNL1        0.1143
      2 C         139.3100  140.7153  165.5342 C.ar    1  UNL1        0.0850
      3 CL        138.0871  139.8576  165.3965 Cl      1  UNL1       -0.0799
      4 C         140.0460  141.0032  166.8091 C.ar    1  UNL1        0.0574
      5 C         139.8126  140.5633  168.2240 C.ar    1  UNL1        0.0631
      6 CL        138.6562  139.6650  168.5491 Cl      1  UNL1       -0.0821
      7 C         140.7356  141.0218  169.3138 C.ar    1  UNL1        0.0353
      8 C         141.8921  141.9202  168.9887 C.ar    1  UNL1        0.1366
      9 N         142.1255  142.3600  167.5738 N.ar    1  UNL1       -0.2236
     10 C         141.2024  141.9015  166.4840 C.ar    1  UNL1        0.1460
     11 N         141.1811  142.1688  165.0082 N.ar    1  UNL1       -0.3061
     12 C         142.1579  143.0198  164.2521 C.3     1  UNL1        0.1031
     13 C         143.4571  142.4346  163.7839 C.3     1  UNL1        0.0255
     14 C         144.4339  143.2856  163.0278 C.3     1  UNL1        0.0191
     15 C         144.1114  144.7220  162.7400 C.3     1  UNL1        0.0687
     16 N         142.8122  145.3073  163.2082 N.3     1  UNL1       -0.2959
     17 C         141.8353  144.4563  163.9643 C.3     1  UNL1        0.0914
     18 H         142.3261  145.6468  162.3782 H       1  UNL1        0.1233
     19 C         142.8151  142.3787  170.0786 C.2     1  UNL1        0.2606
     20 N         142.3181  142.4769  171.4904 N.am    1  UNL1       -0.3241
     21 O         144.2352  142.7389  169.7566 O.2     1  UNL1       -0.2687
     22 H         141.3861  142.2405  171.7018 H       1  UNL1        0.1453
     23 H         142.9239  142.7778  172.2058 H       1  UNL1        0.1453
     24 C         139.2151  141.4142  161.5288 C.1     1  UNL1       -0.0844
     25 C         139.6133  141.4250  162.9750 C.1     1  UNL1       -0.0460
     26 C         138.8169  141.4034  160.0827 C.3     1  UNL1        0.0817
     27 C         138.0004  140.1671  160.3167 C.3     1  UNL1        0.0156
     28 C         139.6335  142.6397  159.8486 C.3     1  UNL1        0.0156
     29 C         138.4187  141.3926  158.6365 C.3     1  UNL1        0.1541
     30 C         136.5487  140.8192  156.9266 C.3     1  UNL1        0.1741
     31 O         137.3218  140.4835  158.1674 O.3     1  UNL1       -0.3501
@<TRIPOS>BOND
     1    30    31    1
     2    31    29    1
     3    29    26    1
     4    26    27    1
     5    26    28    1
     6    26    24    1
     7    24    25    3
     8    25     1    1
     9     1     2   ar
    10     2     3    1
    11     2     4   ar
    12     4     5   ar
    13     5     6    1
    14     5     7   ar
    15     7     8   ar
    16     8    19    1
    17    19    20   am
    18    19    21    2
    19     8     9   ar
    20     9    10   ar
    21    10    11   ar
    22    12    11    1
    23    12    13    1
    24    13    14    1
    25    14    15    1
    26    15    16    1
    27    16    17    1
    28    11     1   ar
    29    17    12    1
    30    10     4   ar
    31    20    22    1
    32    20    23    1
    33    16    18    1
@<TRIPOS>MOLECULE
*****
 31 33 0 0 0
SMALL
GASTEIGER

@<TRIPOS>ATOM
      1 C         142.3784  141.0872  164.3850 C.ar    1  UNL1        0.1143
      2 C         142.7179  140.1630  165.5166 C.ar    1  UNL1        0.0850
      3 CL        143.4756  138.8733  165.4047 Cl      1  UNL1       -0.0799
      4 C         142.1666  140.7549  166.7799 C.ar    1  UNL1        0.0574
      5 C         142.1961  140.2859  168.2043 C.ar    1  UNL1        0.0631
      6 CL        142.8763  138.9958  168.5552 Cl      1  UNL1       -0.0821
      7 C         141.5455  141.1069  169.2779 C.ar    1  UNL1        0.0353
      8 C         140.8653  142.3969  168.9270 C.ar    1  UNL1        0.1366
      9 N         140.8358  142.8660  167.5025 N.ar    1  UNL1       -0.2236
     10 C         141.4864  142.0449  166.4290 C.ar    1  UNL1        0.1460
     11 N         141.6173  142.2503  164.9489 N.ar    1  UNL1       -0.3061
     12 C         141.0812  143.4144  164.1695 C.3     1  UNL1        0.1031
     13 C         139.6766  143.3824  163.6442 C.3     1  UNL1        0.0255
     14 C         139.1406  144.5465  162.8648 C.3     1  UNL1        0.0191
     15 C         140.0091  145.7427  162.6107 C.3     1  UNL1        0.0687
     16 N         141.4138  145.7748  163.1359 N.3     1  UNL1       -0.2959
     17 C         141.9499  144.6107  163.9153 C.3     1  UNL1        0.0914
     18 H         141.4828  146.5920  163.7424 H       1  UNL1        0.1233
     19 C         140.2146  143.2179  170.0006 C.2     1  UNL1        0.2606
     20 N         139.8448  142.5843  171.3089 N.am    1  UNL1       -0.3241
     21 O         139.9337  144.6726  169.7658 O.2     1  UNL1       -0.2687
     22 H         140.0292  141.6296  171.4630 H       1  UNL1        0.1453
     23 H         139.4178  143.1232  172.0135 H       1  UNL1        0.1453
     24 C         143.0957  140.6807  161.5005 C.1     1  UNL1       -0.0844
     25 C         142.7370  140.8840  162.9427 C.1     1  UNL1       -0.0460
     26 C         143.4543  140.4775  160.0582 C.3     1  UNL1        0.0817
     27 C         143.1957  139.0069  160.2012 C.3     1  UNL1        0.0156
     28 C         143.7129  141.9481  159.9153 C.3     1  UNL1        0.0156
     29 C         143.8129  140.2743  158.6160 C.3     1  UNL1        0.1541
     30 C         145.2180  140.9464  156.5366 C.3     1  UNL1        0.1741
     31 O         144.7573  141.2216  157.9373 O.3     1  UNL1       -0.3501
@<TRIPOS>BOND
     1    30    31    1
     2    31    29    1
     3    29    26    1
     4    26    27    1
     5    26    28    1
     6    26    24    1
     7    24    25    3
     8    25     1    1
     9     1     2   ar
    10     2     3    1
    11     2     4   ar
    12     4     5   ar
    13     5     6    1
    14     5     7   ar
    15     7     8   ar
    16     8    19    1
    17    19    20   am
    18    19    21    2
    19     8     9   ar
    20     9    10   ar
    21    10    11   ar
    22    12    11    1
    23    12    13    1
    24    13    14    1
    25    14    15    1
    26    15    16    1
    27    16    17    1
    28    11     1   ar
    29    17    12    1
    30    10     4   ar
    31    20    22    1
    32    20    23    1
    33    16    18    1
@<TRIPOS>MOLECULE
*****
 31 33 0 0 0
SMALL
GASTEIGER

@<TRIPOS>ATOM
      1 C         140.8553  139.3797  164.0201 C.ar    1  UNL1        0.1143
      2 C         139.6499  138.9204  164.7857 C.ar    1  UNL1        0.0850
      3 CL        138.5501  138.0476  164.2579 Cl      1  UNL1       -0.0799
      4 C         139.7375  139.4872  166.1718 C.ar    1  UNL1        0.0574
      5 C         138.8330  139.3707  167.3627 C.ar    1  UNL1        0.0631
      6 CL        137.5735  138.5611  167.2717 Cl      1  UNL1       -0.0821
      7 C         139.1881  140.0637  168.6447 C.ar    1  UNL1        0.0353
      8 C         140.4476  140.8733  168.7358 C.ar    1  UNL1        0.1366
      9 N         141.3520  140.9898  167.5449 N.ar    1  UNL1       -0.2236
     10 C         140.9970  140.2967  166.2629 C.ar    1  UNL1        0.1460
     11 N         141.6878  140.2303  164.9331 N.ar    1  UNL1       -0.3061
     12 C         142.9837  140.8973  164.5785 C.3     1  UNL1        0.1031
     13 C         144.2086  140.0696  164.3252 C.3     1  UNL1        0.0255
     14 C         145.5045  140.7367  163.9706 C.3     1  UNL1        0.0191
     15 C         145.5754  142.2316  163.8693 C.3     1  UNL1        0.0687
     16 N         144.3505  143.0594  164.1226 N.3     1  UNL1       -0.2959
     17 C         143.0546  142.3923  164.4772 C.3     1  UNL1        0.0914
     18 H         144.1806  143.6009  163.2751 H       1  UNL1        0.1233
     19 C         140.8026  141.5663  170.0179 C.2     1  UNL1        0.2606
     20 N         141.6000  142.8364  169.9880 N.am    1  UNL1       -0.3241
     21 O         140.3602  140.9892  171.3298 O.2     1  UNL1       -0.2687
     22 H         141.8904  143.2152  169.1269 H       1  UNL1        0.1453
     23 H         141.8331  143.2913  170.8294 H       1  UNL1        0.1453
     24 C         141.4897  138.7139  161.1646 C.1     1  UNL1       -0.0844
     25 C         141.1725  139.0468  162.5924 C.1     1  UNL1       -0.0460
     26 C         141.8069  138.3811  159.7368 C.3     1  UNL1        0.0817
     27 C         143.0248  137.6277  160.1830 C.3     1  UNL1        0.0156
     28 C         140.5890  139.1345  159.2906 C.3     1  UNL1        0.0156
     29 C         142.1241  138.0482  158.3090 C.3     1  UNL1        0.1541
     30 C         142.8898  136.1061  156.7625 C.3     1  UNL1        0.1741
     31 O         143.0859  136.9415  157.9927 O.3     1  UNL1       -0.3501
@<TRIPOS>BOND
     1    30    31    1
     2    31    29    1
     3    29    26    1
     4    26    27    1
     5    26    28    1
     6    26    24    1
     7    24    25    3
     8    25     1    1
     9     1     2   ar
    10     2     3    1
    11     2     4   ar
    12     4     5   ar
    13     5     6    1
    14     5     7   ar
    15     7     8   ar
    16     8    19    1
    17    19    20   am
    18    19    21    2
    19     8     9   ar
    20     9    10   ar
    21    10    11   ar
    22    12    11    1
    23    12    13    1
    24    13    14    1
    25    14    15    1
    26    15    16    1
    27    16    17    1
    28    11     1   ar
    29    17    12    1
    30    10     4   ar
    31    20    22    1
    32    20    23    1
    33    16    18    1
@<TRIPOS>MOLECULE
*****
 31 33 0 0 0
SMALL
GASTEIGER

@<TRIPOS>ATOM
      1 C         142.2535  142.0456  164.8816 C.ar    1  UNL1        0.1143
      2 C         143.0845  142.4099  166.0761 C.ar    1  UNL1        0.0850
      3 CL        144.4164  143.0993  166.0464 Cl      1  UNL1       -0.0799
      4 C         142.3499  141.9638  167.3054 C.ar    1  UNL1        0.0574
      5 C         142.6850  142.0577  168.7645 C.ar    1  UNL1        0.0631
      6 CL        143.9701  142.6978  169.1991 Cl      1  UNL1       -0.0821
      7 C         141.7351  141.5116  169.7888 C.ar    1  UNL1        0.0353
      8 C         140.4500  140.8716  169.3542 C.ar    1  UNL1        0.1366
      9 N         140.1149  140.7777  167.8951 N.ar    1  UNL1       -0.2236
     10 C         141.0648  141.3238  166.8708 C.ar    1  UNL1        0.1460
     11 N         141.0053  141.3744  165.3728 N.ar    1  UNL1       -0.3061
     12 C         139.8927  140.8463  164.5164 C.3     1  UNL1        0.1031
     13 C         140.1195  139.6431  163.6500 C.3     1  UNL1        0.0255
     14 C         139.0070  139.1151  162.7936 C.3     1  UNL1        0.0191
     15 C         137.6676  139.7903  162.8035 C.3     1  UNL1        0.0687
     16 N         137.4408  140.9936  163.6699 N.3     1  UNL1       -0.2959
     17 C         138.5533  141.5216  164.5263 C.3     1  UNL1        0.0914
     18 H         136.6700  140.7637  164.2972 H       1  UNL1        0.1233
     19 C         139.5001  140.3255  170.3786 C.2     1  UNL1        0.2606
     20 N         139.9693  139.2951  171.3626 N.am    1  UNL1       -0.3241
     21 O         138.0810  140.8097  170.4191 O.2     1  UNL1       -0.2687
     22 H         140.9007  138.9773  171.3360 H       1  UNL1        0.1453
     23 H         139.3458  138.9367  172.0349 H       1  UNL1        0.1453
     24 C         142.9634  142.5678  162.0140 C.1     1  UNL1       -0.0844
     25 C         142.6084  142.3067  163.4478 C.1     1  UNL1       -0.0460
     26 C         143.3183  142.8289  160.5802 C.3     1  UNL1        0.0817
     27 C         144.7609  142.5560  160.8876 C.3     1  UNL1        0.0156
     28 C         141.8757  143.1018  160.2728 C.3     1  UNL1        0.0156
     29 C         143.6732  143.0900  159.1463 C.3     1  UNL1        0.1541
     30 C         145.0797  142.0202  157.2418 C.3     1  UNL1        0.1741
     31 O         144.9973  142.6364  158.6069 O.3     1  UNL1       -0.3501
@<TRIPOS>BOND
     1    30    31    1
     2    31    29    1
     3    29    26    1
     4    26    27    1
     5    26    28    1
     6    26    24    1
     7    24    25    3
     8    25     1    1
     9     1     2   ar
    10     2     3    1
    11     2     4   ar
    12     4     5   ar
    13     5     6    1
    14     5     7   ar
    15     7     8   ar
    16     8    19    1
    17    19    20   am
    18    19    21    2
    19     8     9   ar
    20     9    10   ar
    21    10    11   ar
    22    12    11    1
    23    12    13    1
    24    13    14    1
    25    14    15    1
    26    15    16    1
    27    16    17    1
    28    11     1   ar
    29    17    12    1
    30    10     4   ar
    31    20    22    1
    32    20    23    1
    33    16    18    1
@<TRIPOS>MOLECULE
*****
 31 33 0 0 0
SMALL
GASTEIGER

@<TRIPOS>ATOM
      1 C         142.6389  143.3470  159.8013 C.ar    1  UNL1        0.1143
      2 C         143.1240  143.4563  158.3861 C.ar    1  UNL1        0.0850
      3 CL        144.3150  142.7532  157.8055 Cl      1  UNL1       -0.0799
      4 C         142.2090  144.3922  157.6534 C.ar    1  UNL1        0.0574
      5 C         142.1967  144.8778  156.2343 C.ar    1  UNL1        0.0631
      6 CL        143.2473  144.4087  155.2719 Cl      1  UNL1       -0.0821
      7 C         141.1338  145.8326  155.7775 C.ar    1  UNL1        0.0353
      8 C         140.0832  146.3017  156.7398 C.ar    1  UNL1        0.1366
      9 N         140.0954  145.8160  158.1590 N.ar    1  UNL1       -0.2236
     10 C         141.1583  144.8613  158.6157 C.ar    1  UNL1        0.1460
     11 N         141.4241  144.2153  159.9432 N.ar    1  UNL1       -0.3061
     12 C         140.6166  144.4045  161.1931 C.3     1  UNL1        0.1031
     13 C         139.3160  143.6770  161.3631 C.3     1  UNL1        0.0255
     14 C         138.5086  143.8662  162.6131 C.3     1  UNL1        0.0191
     15 C         139.0019  144.7829  163.6930 C.3     1  UNL1        0.0687
     16 N         140.3026  145.5104  163.5231 N.3     1  UNL1       -0.2959
     17 C         141.1100  145.3212  162.2731 C.3     1  UNL1        0.0914
     18 H         140.8986  145.2341  164.3033 H       1  UNL1        0.1233
     19 C         139.0202  147.2564  156.2830 C.2     1  UNL1        0.2606
     20 N         138.3153  147.0261  154.9792 N.am    1  UNL1       -0.3241
     21 O         138.6623  148.4415  157.1301 O.2     1  UNL1       -0.2687
     22 H         138.5503  146.2484  154.4232 H       1  UNL1        0.1453
     23 H         137.6177  147.6528  154.6793 H       1  UNL1        0.1453
     24 C         143.8804  141.6837  161.9674 C.1     1  UNL1       -0.0844
     25 C         143.2597  142.5153  160.8844 C.1     1  UNL1       -0.0460
     26 C         144.5012  140.8521  163.0505 C.3     1  UNL1        0.0817
     27 C         144.8611  142.0994  163.8020 C.3     1  UNL1        0.0156
     28 C         144.1413  139.6048  162.2991 C.3     1  UNL1        0.0156
     29 C         145.1219  140.0205  164.1336 C.3     1  UNL1        0.1541
     30 C         143.3210  139.3455  165.8803 C.3     1  UNL1        0.1741
     31 O         144.3133  138.9618  164.8229 O.3     1  UNL1       -0.3501
@<TRIPOS>BOND
     1    30    31    1
     2    31    29    1
     3    29    26    1
     4    26    27    1
     5    26    28    1
     6    26    24    1
     7    24    25    3
     8    25     1    1
     9     1     2   ar
    10     2     3    1
    11     2     4   ar
    12     4     5   ar
    13     5     6    1
    14     5     7   ar
    15     7     8   ar
    16     8    19    1
    17    19    20   am
    18    19    21    2
    19     8     9   ar
    20     9    10   ar
    21    10    11   ar
    22    12    11    1
    23    12    13    1
    24    13    14    1
    25    14    15    1
    26    15    16    1
    27    16    17    1
    28    11     1   ar
    29    17    12    1
    30    10     4   ar
    31    20    22    1
    32    20    23    1
    33    16    18    1
@<TRIPOS>MOLECULE
*****
 31 33 0 0 0
SMALL
GASTEIGER

@<TRIPOS>ATOM
      1 C         141.6278  140.5976  164.0347 C.ar    1  UNL1        0.1143
      2 C         142.6047  139.6140  164.6074 C.ar    1  UNL1        0.0850
      3 CL        143.6023  138.8075  163.8299 Cl      1  UNL1       -0.0799
      4 C         142.4090  139.5783  166.0942 C.ar    1  UNL1        0.0574
      5 C         143.0886  138.7944  167.1775 C.ar    1  UNL1        0.0631
      6 CL        144.1865  137.8328  166.8313 Cl      1  UNL1       -0.0821
      7 C         142.6704  138.9722  168.6069 C.ar    1  UNL1        0.0353
      8 C         141.5725  139.9339  168.9531 C.ar    1  UNL1        0.1366
      9 N         140.8928  140.7177  167.8698 N.ar    1  UNL1       -0.2236
     10 C         141.3111  140.5399  166.4403 C.ar    1  UNL1        0.1460
     11 N         140.8283  141.1699  165.1675 N.ar    1  UNL1       -0.3061
     12 C         139.7375  142.1926  165.0484 C.3     1  UNL1        0.1031
     13 C         140.0220  143.6323  165.3587 C.3     1  UNL1        0.0255
     14 C         138.9311  144.6550  165.2397 C.3     1  UNL1        0.0191
     15 C         137.5557  144.2380  164.8102 C.3     1  UNL1        0.0687
     16 N         137.2712  142.7983  164.4999 N.3     1  UNL1       -0.2959
     17 C         138.3620  141.7756  164.6190 C.3     1  UNL1        0.0914
     18 H         136.9401  142.7648  163.5357 H       1  UNL1        0.1233
     19 C         141.1542  140.1116  170.3826 C.2     1  UNL1        0.2606
     20 N         142.1566  140.5514  171.4082 N.am    1  UNL1       -0.3241
     21 O         139.7336  139.8496  170.7865 O.2     1  UNL1       -0.2687
     22 H         143.0890  140.7234  171.1431 H       1  UNL1        0.1453
     23 H         141.8821  140.6681  172.3464 H       1  UNL1        0.1453
     24 C         141.3260  141.2975  161.1331 C.1     1  UNL1       -0.0844
     25 C         141.4769  140.9475  162.5839 C.1     1  UNL1       -0.0460
     26 C         141.1750  141.6474  159.6823 C.3     1  UNL1        0.0817
     27 C         139.6837  141.6666  159.8421 C.3     1  UNL1        0.0156
     28 C         142.6664  141.6282  159.5225 C.3     1  UNL1        0.0156
     29 C         141.0241  141.9973  158.2315 C.3     1  UNL1        0.1541
     30 C         140.2714  144.1623  157.0084 C.3     1  UNL1        0.1741
     31 O         141.3147  143.3920  157.7623 O.3     1  UNL1       -0.3501
@<TRIPOS>BOND
     1    30    31    1
     2    31    29    1
     3    29    26    1
     4    26    27    1
     5    26    28    1
     6    26    24    1
     7    24    25    3
     8    25     1    1
     9     1     2   ar
    10     2     3    1
    11     2     4   ar
    12     4     5   ar
    13     5     6    1
    14     5     7   ar
    15     7     8   ar
    16     8    19    1
    17    19    20   am
    18    19    21    2
    19     8     9   ar
    20     9    10   ar
    21    10    11   ar
    22    12    11    1
    23    12    13    1
    24    13    14    1
    25    14    15    1
    26    15    16    1
    27    16    17    1
    28    11     1   ar
    29    17    12    1
    30    10     4   ar
    31    20    22    1
    32    20    23    1
    33    16    18    1
