@<TRIPOS>MOLECULE
*****
 26 29 0 0 0
SMALL
GASTEIGER

@<TRIPOS>ATOM
      1 C         140.0937  138.4774  161.0781 C.ar    1  UNL1        0.1245
      2 C         140.4892  138.9313  162.4519 C.ar    1  UNL1        0.0626
      3 C         139.2827  138.8335  163.3377 C.ar    1  UNL1        0.1769
      4 O         138.1414  138.3191  162.5113 O.2     1  UNL1       -0.3534
      5 N         138.6426  138.0990  161.1148 N.ar    1  UNL1       -0.0769
      6 C         139.2271  139.1879  164.7942 C.ar    1  UNL1        0.0370
      7 C         138.3341  138.4166  165.7203 C.ar    1  UNL1        0.0032
      8 C         138.2786  138.7710  167.1767 C.ar    1  UNL1        0.0044
      9 C         139.1160  139.8967  167.7071 C.ar    1  UNL1        0.0512
     10 C         140.0090  140.6681  166.7811 C.ar    1  UNL1        0.0022
     11 C         140.0645  140.3137  165.3247 C.ar    1  UNL1        0.0007
     12 C         140.7142  141.7192  167.5860 C.3     1  UNL1        0.1205
     13 N         140.2571  141.5975  169.0094 N.am    1  UNL1       -0.2736
     14 C         139.2694  140.4711  169.0844 C.2     1  UNL1        0.2490
     15 O         138.5596  140.0016  170.3195 O.2     1  UNL1       -0.2699
     16 C         140.7086  142.4521  170.1566 C.3     1  UNL1        0.0761
     17 C         141.5274  141.8530  171.2613 C.3     1  UNL1        0.0215
     18 C         140.3411  143.9058  170.1989 C.3     1  UNL1        0.0215
     19 C         142.7872  138.2844  157.4784 C.ar    1  UNL1        0.2250
     20 C         141.2977  138.2804  157.3016 C.ar    1  UNL1        0.0578
     21 C         140.3998  138.3448  158.5015 C.ar    1  UNL1        0.0079
     22 C         140.9915  138.4131  159.8782 C.ar    1  UNL1        0.0403
     23 C         142.4811  138.4171  160.0549 C.ar    1  UNL1        0.1036
     24 N         143.3789  138.3528  158.8552 N.ar    1  UNL1       -0.2101
     25 C         143.9201  136.9100  155.5870 C.3     1  UNL1        0.2542
     26 O         143.6850  138.2201  156.2785 O.3     1  UNL1       -0.4561
@<TRIPOS>BOND
     1    25    26    1
     2    26    19    1
     3    19    20   ar
     4    20    21   ar
     5    21    22   ar
     6    22     1    1
     7     1     2   ar
     8     2     3   ar
     9     3     6    1
    10     6     7   ar
    11     7     8   ar
    12     8     9   ar
    13     9    10   ar
    14    10    11   ar
    15    10    12    1
    16    12    13    1
    17    13    16    1
    18    16    17    1
    19    16    18    1
    20    13    14   am
    21    14    15    2
    22     3     4   ar
    23     4     5   ar
    24    22    23   ar
    25    23    24   ar
    26    24    19   ar
    27     5     1   ar
    28    11     6   ar
    29    14     9    1
@<TRIPOS>MOLECULE
*****
 26 29 0 0 0
SMALL
GASTEIGER

@<TRIPOS>ATOM
      1 C         139.4026  138.8615  160.8413 C.ar    1  UNL1        0.1245
      2 C         139.0212  139.5766  162.1036 C.ar    1  UNL1        0.0626
      3 C         139.5896  138.8097  163.2606 C.ar    1  UNL1        0.1769
      4 O         140.3222  137.6206  162.7134 O.2     1  UNL1       -0.3534
      5 N         140.2066  137.6526  161.2183 N.ar    1  UNL1       -0.0769
      6 C         139.4499  139.1688  164.7103 C.ar    1  UNL1        0.0370
      7 C         138.4759  138.4264  165.5764 C.ar    1  UNL1        0.0032
      8 C         138.3362  138.7855  167.0260 C.ar    1  UNL1        0.0044
      9 C         139.1706  139.8870  167.6096 C.ar    1  UNL1        0.0512
     10 C         140.1446  140.6294  166.7435 C.ar    1  UNL1        0.0022
     11 C         140.2843  140.2703  165.2939 C.ar    1  UNL1        0.0007
     12 C         140.8271  141.6607  167.5924 C.3     1  UNL1        0.1205
     13 N         140.2748  141.5558  168.9831 N.am    1  UNL1       -0.2736
     14 C         139.2510  140.4596  168.9937 C.2     1  UNL1        0.2490
     15 O         138.4486  140.0141  170.1802 O.2     1  UNL1       -0.2699
     16 C         140.6759  142.3991  170.1570 C.3     1  UNL1        0.0761
     17 C         140.4367  143.8797  170.1335 C.3     1  UNL1        0.0215
     18 C         141.3163  141.7618  171.3543 C.3     1  UNL1        0.0215
     19 C         138.3238  140.1217  156.6583 C.ar    1  UNL1        0.2250
     20 C         139.4679  139.1788  156.8859 C.ar    1  UNL1        0.0578
     21 C         139.8275  138.7588  158.2803 C.ar    1  UNL1        0.0079
     22 C         139.0430  139.2816  159.4469 C.ar    1  UNL1        0.0403
     23 C         137.8988  140.2245  159.2192 C.ar    1  UNL1        0.1036
     24 N         137.5392  140.6445  157.8250 N.ar    1  UNL1       -0.2101
     25 C         138.9744  141.2484  154.4094 C.3     1  UNL1        0.2542
     26 O         137.9642  140.5417  155.2639 O.3     1  UNL1       -0.4561
@<TRIPOS>BOND
     1    25    26    1
     2    26    19    1
     3    19    20   ar
     4    20    21   ar
     5    21    22   ar
     6    22     1    1
     7     1     2   ar
     8     2     3   ar
     9     3     6    1
    10     6     7   ar
    11     7     8   ar
    12     8     9   ar
    13     9    10   ar
    14    10    11   ar
    15    10    12    1
    16    12    13    1
    17    13    16    1
    18    16    17    1
    19    16    18    1
    20    13    14   am
    21    14    15    2
    22     3     4   ar
    23     4     5   ar
    24    22    23   ar
    25    23    24   ar
    26    24    19   ar
    27     5     1   ar
    28    11     6   ar
    29    14     9    1
@<TRIPOS>MOLECULE
*****
 26 29 0 0 0
SMALL
GASTEIGER

@<TRIPOS>ATOM
      1 C         138.3197  140.5532  160.8483 C.ar    1  UNL1        0.1245
      2 C         138.8577  140.9993  162.1755 C.ar    1  UNL1        0.0626
      3 C         138.5318  139.9409  163.1872 C.ar    1  UNL1        0.1769
      4 O         137.7924  138.8406  162.4852 O.2     1  UNL1       -0.3534
      5 N         137.6613  139.2190  161.0397 N.ar    1  UNL1       -0.0769
      6 C         138.8835  139.9764  164.6450 C.ar    1  UNL1        0.0370
      7 C         138.0995  139.1561  165.6259 C.ar    1  UNL1        0.0032
      8 C         138.4512  139.1916  167.0836 C.ar    1  UNL1        0.0044
      9 C         139.5870  140.0476  167.5604 C.ar    1  UNL1        0.0512
     10 C         140.3710  140.8679  166.5795 C.ar    1  UNL1        0.0022
     11 C         140.0193  140.8324  165.1218 C.ar    1  UNL1        0.0007
     12 C         141.4301  141.6109  167.3387 C.3     1  UNL1        0.1205
     13 N         141.3006  141.2498  168.7888 N.am    1  UNL1       -0.2736
     14 C         140.1615  140.2835  168.9259 C.2     1  UNL1        0.2490
     15 O         139.6812  139.6624  170.2039 O.2     1  UNL1       -0.2699
     16 C         142.1595  141.7645  169.9057 C.3     1  UNL1        0.0761
     17 C         141.5954  141.8870  171.2902 C.3     1  UNL1        0.0215
     18 C         143.5823  142.1567  169.6381 C.3     1  UNL1        0.0215
     19 C         138.6271  142.8195  156.9728 C.ar    1  UNL1        0.2250
     20 C         139.1602  143.4225  158.2385 C.ar    1  UNL1        0.0578
     21 C         139.0578  142.6671  159.5303 C.ar    1  UNL1        0.0079
     22 C         138.4222  141.3086  159.5564 C.ar    1  UNL1        0.0403
     23 C         137.8890  140.7057  158.2907 C.ar    1  UNL1        0.1036
     24 N         137.9914  141.4610  156.9989 N.ar    1  UNL1       -0.2101
     25 C         137.6355  144.5171  155.2743 C.3     1  UNL1        0.2542
     26 O         138.7295  143.5749  155.6810 O.3     1  UNL1       -0.4561
@<TRIPOS>BOND
     1    25    26    1
     2    26    19    1
     3    19    20   ar
     4    20    21   ar
     5    21    22   ar
     6    22     1    1
     7     1     2   ar
     8     2     3   ar
     9     3     6    1
    10     6     7   ar
    11     7     8   ar
    12     8     9   ar
    13     9    10   ar
    14    10    11   ar
    15    10    12    1
    16    12    13    1
    17    13    16    1
    18    16    17    1
    19    16    18    1
    20    13    14   am
    21    14    15    2
    22     3     4   ar
    23     4     5   ar
    24    22    23   ar
    25    23    24   ar
    26    24    19   ar
    27     5     1   ar
    28    11     6   ar
    29    14     9    1
@<TRIPOS>MOLECULE
*****
 26 29 0 0 0
SMALL
GASTEIGER

@<TRIPOS>ATOM
      1 C         142.4072  138.5410  159.8526 C.ar    1  UNL1        0.1245
      2 C         141.8468  138.6150  161.2420 C.ar    1  UNL1        0.0626
      3 C         142.9339  139.0992  162.1551 C.ar    1  UNL1        0.1769
      4 O         144.1662  139.3244  161.3301 O.2     1  UNL1       -0.3534
      5 N         143.8408  138.9794  159.9071 N.ar    1  UNL1       -0.0769
      6 C         142.8103  139.3195  163.6338 C.ar    1  UNL1        0.0370
      7 C         143.8164  138.7162  164.5686 C.ar    1  UNL1        0.0032
      8 C         143.6928  138.9365  166.0471 C.ar    1  UNL1        0.0044
      9 C         142.5632  139.7601  166.5909 C.ar    1  UNL1        0.0512
     10 C         141.5572  140.3634  165.6561 C.ar    1  UNL1        0.0022
     11 C         141.6808  140.1431  164.1776 C.ar    1  UNL1        0.0007
     12 C         140.5583  141.1230  166.4777 C.3     1  UNL1        0.1205
     13 N         140.9469  140.9892  167.9203 N.am    1  UNL1       -0.2736
     14 C         142.1861  140.1468  167.9903 C.2     1  UNL1        0.2490
     15 O         142.9193  139.7593  169.2401 O.2     1  UNL1       -0.2699
     16 C         140.2234  141.5919  169.0879 C.3     1  UNL1        0.0761
     17 C         140.4271  143.0377  169.4314 C.3     1  UNL1        0.0215
     18 C         139.2961  140.7487  169.9121 C.3     1  UNL1        0.0215
     19 C         140.1794  137.2333  156.1680 C.ar    1  UNL1        0.2250
     20 C         141.6253  136.8721  156.3379 C.ar    1  UNL1        0.0578
     21 C         142.3679  137.3080  157.5661 C.ar    1  UNL1        0.0079
     22 C         141.6646  138.1051  158.6244 C.ar    1  UNL1        0.0403
     23 C         140.2187  138.4662  158.4545 C.ar    1  UNL1        0.1036
     24 N         139.4760  138.0304  157.2264 N.ar    1  UNL1       -0.2101
     25 C         140.1727  136.6057  153.6469 C.3     1  UNL1        0.2542
     26 O         139.4368  136.7974  154.9398 O.3     1  UNL1       -0.4561
@<TRIPOS>BOND
     1    25    26    1
     2    26    19    1
     3    19    20   ar
     4    20    21   ar
     5    21    22   ar
     6    22     1    1
     7     1     2   ar
     8     2     3   ar
     9     3     6    1
    10     6     7   ar
    11     7     8   ar
    12     8     9   ar
    13     9    10   ar
    14    10    11   ar
    15    10    12    1
    16    12    13    1
    17    13    16    1
    18    16    17    1
    19    16    18    1
    20    13    14   am
    21    14    15    2
    22     3     4   ar
    23     4     5   ar
    24    22    23   ar
    25    23    24   ar
    26    24    19   ar
    27     5     1   ar
    28    11     6   ar
    29    14     9    1
@<TRIPOS>MOLECULE
*****
 26 29 0 0 0
SMALL
GASTEIGER

@<TRIPOS>ATOM
      1 C         142.6137  143.5957  159.7240 C.ar    1  UNL1        0.1245
      2 C         142.3382  143.8073  161.1832 C.ar    1  UNL1        0.0626
      3 C         143.1276  142.7925  161.9558 C.ar    1  UNL1        0.1769
      4 O         143.8910  141.9537  160.9742 O.2     1  UNL1       -0.3534
      5 N         143.5734  142.4501  159.5948 N.ar    1  UNL1       -0.0769
      6 C         143.1498  142.6428  163.4482 C.ar    1  UNL1        0.0370
      7 C         144.1141  143.4472  164.2685 C.ar    1  UNL1        0.0032
      8 C         144.1363  143.2974  165.7608 C.ar    1  UNL1        0.0044
      9 C         143.1940  142.3432  166.4329 C.ar    1  UNL1        0.0512
     10 C         142.2296  141.5388  165.6126 C.ar    1  UNL1        0.0022
     11 C         142.2075  141.6886  164.1203 C.ar    1  UNL1        0.0007
     12 C         141.4264  140.6841  166.5476 C.3     1  UNL1        0.1205
     13 N         141.8944  140.9603  167.9458 N.am    1  UNL1       -0.2736
     14 C         142.9868  141.9857  167.8749 C.2     1  UNL1        0.2490
     15 O         143.7398  142.5538  169.0411 O.2     1  UNL1       -0.2699
     16 C         141.3631  140.3229  169.1954 C.3     1  UNL1        0.0761
     17 C         142.2049  139.3380  169.9512 C.3     1  UNL1        0.0215
     18 C         139.9900  140.6704  169.6891 C.3     1  UNL1        0.0215
     19 C         140.8678  145.9791  156.3297 C.ar    1  UNL1        0.2250
     20 C         140.2885  146.1015  157.7079 C.ar    1  UNL1        0.0578
     21 C         140.8705  145.3070  158.8393 C.ar    1  UNL1        0.0079
     22 C         142.0317  144.3902  158.5925 C.ar    1  UNL1        0.0403
     23 C         142.6110  144.2678  157.2143 C.ar    1  UNL1        0.1036
     24 N         142.0291  145.0622  156.0829 N.ar    1  UNL1       -0.2101
     25 C         138.9433  147.4249  155.3519 C.3     1  UNL1        0.2542
     26 O         140.2858  146.7736  155.1983 O.3     1  UNL1       -0.4561
@<TRIPOS>BOND
     1    25    26    1
     2    26    19    1
     3    19    20   ar
     4    20    21   ar
     5    21    22   ar
     6    22     1    1
     7     1     2   ar
     8     2     3   ar
     9     3     6    1
    10     6     7   ar
    11     7     8   ar
    12     8     9   ar
    13     9    10   ar
    14    10    11   ar
    15    10    12    1
    16    12    13    1
    17    13    16    1
    18    16    17    1
    19    16    18    1
    20    13    14   am
    21    14    15    2
    22     3     4   ar
    23     4     5   ar
    24    22    23   ar
    25    23    24   ar
    26    24    19   ar
    27     5     1   ar
    28    11     6   ar
    29    14     9    1
@<TRIPOS>MOLECULE
*****
 26 29 0 0 0
SMALL
GASTEIGER

@<TRIPOS>ATOM
      1 C         143.8707  142.5665  159.5283 C.ar    1  UNL1        0.1245
      2 C         144.0750  142.0099  160.9061 C.ar    1  UNL1        0.0626
      3 C         143.4095  142.9337  161.8827 C.ar    1  UNL1        0.1769
      4 O         142.7939  144.0613  161.1084 O.2     1  UNL1       -0.3534
      5 N         143.0789  143.8345  159.6533 N.ar    1  UNL1       -0.0769
      6 C         143.3671  142.7603  163.3721 C.ar    1  UNL1        0.0370
      7 C         144.2790  143.5680  164.2474 C.ar    1  UNL1        0.0032
      8 C         144.2365  143.3946  165.7367 C.ar    1  UNL1        0.0044
      9 C         143.2822  142.4136  166.3507 C.ar    1  UNL1        0.0512
     10 C         142.3704  141.6060  165.4754 C.ar    1  UNL1        0.0022
     11 C         142.4128  141.7793  163.9861 C.ar    1  UNL1        0.0007
     12 C         141.5413  140.7226  166.3598 C.3     1  UNL1        0.1205
     13 N         141.9408  140.9842  167.7818 N.am    1  UNL1       -0.2736
     14 C         143.0167  142.0293  167.7762 C.2     1  UNL1        0.2490
     15 O         143.7062  142.5915  168.9839 O.2     1  UNL1       -0.2699
     16 C         141.3653  140.3177  168.9962 C.3     1  UNL1        0.0761
     17 C         139.9377  140.5672  169.3829 C.3     1  UNL1        0.0215
     18 C         142.2175  139.4018  169.8237 C.3     1  UNL1        0.0215
     19 C         145.3697  140.7516  155.6931 C.ar    1  UNL1        0.2250
     20 C         144.0827  140.2728  156.2966 C.ar    1  UNL1        0.0578
     21 C         143.5830  140.8778  157.5750 C.ar    1  UNL1        0.0079
     22 C         144.3704  141.9616  158.2499 C.ar    1  UNL1        0.0403
     23 C         145.6574  142.4403  157.6463 C.ar    1  UNL1        0.1036
     24 N         146.1571  141.8355  156.3680 N.ar    1  UNL1       -0.2101
     25 C         144.9205  139.9041  153.2786 C.3     1  UNL1        0.2542
     26 O         145.8694  140.1466  154.4147 O.3     1  UNL1       -0.4561
@<TRIPOS>BOND
     1    25    26    1
     2    26    19    1
     3    19    20   ar
     4    20    21   ar
     5    21    22   ar
     6    22     1    1
     7     1     2   ar
     8     2     3   ar
     9     3     6    1
    10     6     7   ar
    11     7     8   ar
    12     8     9   ar
    13     9    10   ar
    14    10    11   ar
    15    10    12    1
    16    12    13    1
    17    13    16    1
    18    16    17    1
    19    16    18    1
    20    13    14   am
    21    14    15    2
    22     3     4   ar
    23     4     5   ar
    24    22    23   ar
    25    23    24   ar
    26    24    19   ar
    27     5     1   ar
    28    11     6   ar
    29    14     9    1
@<TRIPOS>MOLECULE
*****
 26 29 0 0 0
SMALL
GASTEIGER

@<TRIPOS>ATOM
      1 C         138.6336  140.1976  163.9266 C.ar    1  UNL1        0.1245
      2 C         139.5176  139.6383  162.8516 C.ar    1  UNL1        0.0626
      3 C         138.8996  139.9680  161.5252 C.ar    1  UNL1        0.1769
      4 O         137.6337  140.7311  161.7805 O.2     1  UNL1       -0.3534
      5 N         137.4692  140.8731  163.2646 N.ar    1  UNL1       -0.0769
      6 C         139.4508  139.5994  160.1796 C.ar    1  UNL1        0.0370
      7 C         138.7037  139.9753  158.9345 C.ar    1  UNL1        0.0032
      8 C         139.2548  139.6067  157.5890 C.ar    1  UNL1        0.0044
      9 C         140.5531  138.8620  157.4888 C.ar    1  UNL1        0.0512
     10 C         141.3002  138.4861  158.7339 C.ar    1  UNL1        0.0022
     11 C         140.7490  138.8547  160.0794 C.ar    1  UNL1        0.0007
     12 C         142.5465  137.7586  158.3248 C.3     1  UNL1        0.1205
     13 N         142.5697  137.6849  156.8268 N.am    1  UNL1       -0.2736
     14 C         141.3377  138.3669  156.3101 C.2     1  UNL1        0.2490
     15 O         140.9572  138.5259  154.8679 O.2     1  UNL1       -0.2699
     16 C         143.6376  137.0421  155.9921 C.3     1  UNL1        0.0761
     17 C         144.5379  137.8899  155.1432 C.3     1  UNL1        0.0215
     18 C         143.8050  135.5516  156.0063 C.3     1  UNL1        0.0215
     19 C         139.3490  139.9014  168.3595 C.ar    1  UNL1        0.2250
     20 C         140.1278  140.8857  167.5383 C.ar    1  UNL1        0.0578
     21 C         139.8894  140.9845  166.0606 C.ar    1  UNL1        0.0079
     22 C         138.8720  140.0989  165.4043 C.ar    1  UNL1        0.0403
     23 C         138.0932  139.1146  166.2256 C.ar    1  UNL1        0.1036
     24 N         138.3316  139.0158  167.7031 N.ar    1  UNL1       -0.2101
     25 C         140.2948  140.9115  170.5584 C.3     1  UNL1        0.2542
     26 O         139.5874  139.8027  169.8371 O.3     1  UNL1       -0.4561
@<TRIPOS>BOND
     1    25    26    1
     2    26    19    1
     3    19    20   ar
     4    20    21   ar
     5    21    22   ar
     6    22     1    1
     7     1     2   ar
     8     2     3   ar
     9     3     6    1
    10     6     7   ar
    11     7     8   ar
    12     8     9   ar
    13     9    10   ar
    14    10    11   ar
    15    10    12    1
    16    12    13    1
    17    13    16    1
    18    16    17    1
    19    16    18    1
    20    13    14   am
    21    14    15    2
    22     3     4   ar
    23     4     5   ar
    24    22    23   ar
    25    23    24   ar
    26    24    19   ar
    27     5     1   ar
    28    11     6   ar
    29    14     9    1
@<TRIPOS>MOLECULE
*****
 26 29 0 0 0
SMALL
GASTEIGER

@<TRIPOS>ATOM
      1 C         138.6943  139.5345  163.8791 C.ar    1  UNL1        0.1245
      2 C         138.7761  140.6717  162.9045 C.ar    1  UNL1        0.0626
      3 C         138.6004  140.1125  161.5238 C.ar    1  UNL1        0.1769
      4 O         138.4101  138.6296  161.6451 O.2     1  UNL1       -0.3534
      5 N         138.4681  138.2723  163.1007 N.ar    1  UNL1       -0.0769
      6 C         138.6129  140.8982  160.2460 C.ar    1  UNL1        0.0370
      7 C         137.8898  140.3786  159.0390 C.ar    1  UNL1        0.0032
      8 C         137.9023  141.1644  157.7613 C.ar    1  UNL1        0.0044
      9 C         138.6380  142.4697  157.6907 C.ar    1  UNL1        0.0512
     10 C         139.3611  142.9893  158.8978 C.ar    1  UNL1        0.0022
     11 C         139.3486  142.2035  160.1755 C.ar    1  UNL1        0.0007
     12 C         139.9953  144.2980  158.5305 C.3     1  UNL1        0.1205
     13 N         139.6642  144.5873  157.0963 N.am    1  UNL1       -0.2736
     14 C         138.8253  143.4573  156.5773 C.2     1  UNL1        0.2490
     15 O         138.2710  143.3362  155.1888 O.2     1  UNL1       -0.2699
     16 C         140.0962  145.7946  156.3179 C.3     1  UNL1        0.0761
     17 C         141.3477  145.7464  155.4925 C.3     1  UNL1        0.0215
     18 C         139.2766  147.0500  156.3650 C.3     1  UNL1        0.0215
     19 C         139.0628  139.8531  168.3526 C.ar    1  UNL1        0.2250
     20 C         139.8964  140.7310  167.4671 C.ar    1  UNL1        0.0578
     21 C         139.7735  140.6248  165.9759 C.ar    1  UNL1        0.0079
     22 C         138.8171  139.6407  165.3703 C.ar    1  UNL1        0.0403
     23 C         137.9836  138.7627  166.2560 C.ar    1  UNL1        0.1036
     24 N         138.1064  138.8688  167.7471 N.ar    1  UNL1       -0.2101
     25 C         140.5417  140.0188  170.4823 C.3     1  UNL1        0.2542
     26 O         139.1857  139.9593  169.8438 O.3     1  UNL1       -0.4561
@<TRIPOS>BOND
     1    25    26    1
     2    26    19    1
     3    19    20   ar
     4    20    21   ar
     5    21    22   ar
     6    22     1    1
     7     1     2   ar
     8     2     3   ar
     9     3     6    1
    10     6     7   ar
    11     7     8   ar
    12     8     9   ar
    13     9    10   ar
    14    10    11   ar
    15    10    12    1
    16    12    13    1
    17    13    16    1
    18    16    17    1
    19    16    18    1
    20    13    14   am
    21    14    15    2
    22     3     4   ar
    23     4     5   ar
    24    22    23   ar
    25    23    24   ar
    26    24    19   ar
    27     5     1   ar
    28    11     6   ar
    29    14     9    1
@<TRIPOS>MOLECULE
*****
 26 29 0 0 0
SMALL
GASTEIGER

@<TRIPOS>ATOM
      1 C         142.9524  136.9337  157.1658 C.ar    1  UNL1        0.1245
      2 C         142.5179  137.5974  158.4388 C.ar    1  UNL1        0.0626
      3 C         143.0428  139.0025  158.4316 C.ar    1  UNL1        0.1769
      4 O         143.8018  139.2072  157.1541 O.2     1  UNL1       -0.3534
      5 N         143.7460  137.9287  156.3717 N.ar    1  UNL1       -0.0769
      6 C         142.8438  140.0237  159.5122 C.ar    1  UNL1        0.0370
      7 C         143.8070  140.0990  160.6596 C.ar    1  UNL1        0.0032
      8 C         143.6079  141.1202  161.7401 C.ar    1  UNL1        0.0044
      9 C         142.4456  142.0660  161.6733 C.ar    1  UNL1        0.0512
     10 C         141.4824  141.9907  160.5259 C.ar    1  UNL1        0.0022
     11 C         141.6815  140.9696  159.4454 C.ar    1  UNL1        0.0007
     12 C         140.4372  143.0475  160.7280 C.3     1  UNL1        0.1205
     13 N         140.7545  143.7760  162.0003 N.am    1  UNL1       -0.2736
     14 C         141.9957  143.1694  162.5845 C.2     1  UNL1        0.2490
     15 O         142.6689  143.5919  163.8566 O.2     1  UNL1       -0.2699
     16 C         139.9685  144.9117  162.5855 C.3     1  UNL1        0.0761
     17 C         139.2876  144.7475  163.9119 C.3     1  UNL1        0.0215
     18 C         139.8634  146.2115  161.8443 C.3     1  UNL1        0.0215
     19 C         142.0363  132.7010  155.9433 C.ar    1  UNL1        0.2250
     20 C         141.4213  133.8471  155.1963 C.ar    1  UNL1        0.0578
     21 C         141.7267  135.2581  155.6038 C.ar    1  UNL1        0.0079
     22 C         142.6470  135.5228  156.7583 C.ar    1  UNL1        0.0403
     23 C         143.2619  134.3766  157.5053 C.ar    1  UNL1        0.1036
     24 N         142.9566  132.9657  157.0979 N.ar    1  UNL1       -0.2101
     25 C         140.6273  131.0139  154.5582 C.3     1  UNL1        0.2542
     26 O         141.7309  131.2901  155.5358 O.3     1  UNL1       -0.4561
@<TRIPOS>BOND
     1    25    26    1
     2    26    19    1
     3    19    20   ar
     4    20    21   ar
     5    21    22   ar
     6    22     1    1
     7     1     2   ar
     8     2     3   ar
     9     3     6    1
    10     6     7   ar
    11     7     8   ar
    12     8     9   ar
    13     9    10   ar
    14    10    11   ar
    15    10    12    1
    16    12    13    1
    17    13    16    1
    18    16    17    1
    19    16    18    1
    20    13    14   am
    21    14    15    2
    22     3     4   ar
    23     4     5   ar
    24    22    23   ar
    25    23    24   ar
    26    24    19   ar
    27     5     1   ar
    28    11     6   ar
    29    14     9    1
