@<TRIPOS>MOLECULE
*****
 43 49 0 0 0
SMALL
GASTEIGER

@<TRIPOS>ATOM
      1 C         141.7768  138.1930  164.1278 C.3     1  UNL1        0.0932
      2 C         142.1756  138.3658  162.6922 C.3     1  UNL1        0.0286
      3 C         143.4296  139.1132  162.3468 C.3     1  UNL1        0.0193
      4 C         144.2847  139.6876  163.4371 C.3     1  UNL1        0.0700
      5 C         143.8858  139.5148  164.8728 C.3     1  UNL1        0.0193
      6 C         142.6319  138.7675  165.2181 C.3     1  UNL1        0.0286
      7 C         143.6065  139.2860  163.6754 C.3     1  UNL1        0.1562
      8 O         142.4727  138.6102  163.9876 O.3     1  UNL1       -0.3572
      9 N         145.5385  140.4350  163.0918 N.3     1  UNL1       -0.2926
     10 H         145.6714  140.3380  162.0852 H       1  UNL1        0.1236
     11 C         145.6499  141.8978  163.4043 C.3     1  UNL1        0.1152
     12 C         144.4641  142.7972  163.2168 C.ar    1  UNL1        0.0765
     13 C         143.8043  143.4264  164.4079 C.ar    1  UNL1        0.0193
     14 C         142.6186  144.3257  164.2205 C.ar    1  UNL1        0.0411
     15 C         142.0927  144.5959  162.8420 C.ar    1  UNL1        0.1708
     16 C         142.7526  143.9667  161.6509 C.ar    1  UNL1        0.1682
     17 N         143.9383  143.0674  161.8383 N.ar    1  UNL1       -0.2304
     18 N         142.2266  144.2370  160.2723 N.am    1  UNL1       -0.2639
     19 C         141.0409  145.1363  160.0848 C.2     1  UNL1        0.2718
     20 O         140.5150  145.4066  158.7062 O.2     1  UNL1       -0.2707
     21 C         140.3811  145.7655  161.2759 C.3     1  UNL1        0.2898
     22 O         140.9069  145.4953  162.6545 O.3     1  UNL1       -0.4628
     23 H         142.6597  143.8240  159.4905 H       1  UNL1        0.1565
     24 C         140.5229  137.4457  164.4731 C.3     1  UNL1        0.0320
     25 C         139.2669  138.1982  164.7989 C.3     1  UNL1        0.0327
     26 C         139.5207  142.5778  165.8013 C.ar    1  UNL1        0.2249
     27 C         138.9879  143.5992  164.8407 C.ar    1  UNL1        0.0593
     28 C         138.3705  143.1607  163.5460 C.ar    1  UNL1        0.0254
     29 C         138.2859  141.7009  163.2118 C.ar    1  UNL1        0.0990
     30 N         137.6684  141.2624  161.9170 N.ar    1  UNL1       -0.2400
     31 C         137.5838  139.8026  161.5828 C.ar    1  UNL1        0.1281
     32 C         138.1166  138.7811  162.5435 C.ar    1  UNL1        0.1566
     33 F         138.0320  137.3213  162.2094 F       1  UNL1       -0.2028
     34 C         138.7341  139.2196  163.8383 C.ar    1  UNL1        0.0261
     35 C         138.8187  140.6795  164.1724 C.ar    1  UNL1        0.1002
     36 N         139.4361  141.1179  165.4672 N.ar    1  UNL1       -0.2104
     37 O         140.1382  143.0163  167.0962 O.3     1  UNL1       -0.4591
     38 C         140.9021  142.0337  167.9335 C.3     1  UNL1        0.2209
     39 C         141.8268  142.5235  169.0083 C.3     1  UNL1        0.1196
     40 C         143.0570  142.6574  169.8560 C.3     1  UNL1        0.0189
     41 C         143.0274  141.6692  168.7280 C.3     1  UNL1        0.0189
     42 N         140.0675  144.5720  170.3153 N.1     1  UNL1       -0.1958
     43 C         140.9472  143.5478  169.6617 C.1     1  UNL1        0.0748
@<TRIPOS>BOND
     1    42    43    3
     2    43    39    1
     3    39    38    1
     4    38    37    1
     5    37    26    1
     6    26    27   ar
     7    27    28   ar
     8    28    29   ar
     9    29    30   ar
    10    30    31   ar
    11    31    32   ar
    12    32    33    1
    13    32    34   ar
    14    34    25    1
    15    25    24    1
    16    24     1    1
    17     1     2    1
    18     2     3    1
    19     3     4    1
    20     4     9    1
    21     9    11    1
    22    11    12    1
    23    12    13   ar
    24    13    14   ar
    25    14    15   ar
    26    15    16   ar
    27    16    17   ar
    28    16    18    1
    29    18    19   am
    30    19    20    2
    31    19    21    1
    32    21    22    1
    33     4     5    1
    34     5     6    1
    35     4     7    1
    36     7     8    1
    37    34    35   ar
    38    35    36   ar
    39    39    40    1
    40    40    41    1
    41    41    39    1
    42    36    26   ar
    43    35    29   ar
    44     6     1    1
    45     8     1    1
    46    17    12   ar
    47    22    15    1
    48     9    10    1
    49    18    23    1
@<TRIPOS>MOLECULE
*****
 43 49 0 0 0
SMALL
GASTEIGER

@<TRIPOS>ATOM
      1 C         137.8298  142.6543  163.9651 C.3     1  UNL1        0.0932
      2 C         137.6471  142.5266  162.4818 C.3     1  UNL1        0.0286
      3 C         137.6981  141.1749  161.8334 C.3     1  UNL1        0.0193
      4 C         137.9319  139.9509  162.6684 C.3     1  UNL1        0.0700
      5 C         138.1146  140.0786  164.1518 C.3     1  UNL1        0.0193
      6 C         138.0635  141.4303  164.8001 C.3     1  UNL1        0.0286
      7 C         137.9120  140.6702  163.0687 C.3     1  UNL1        0.1562
      8 O         137.8659  141.8924  163.6549 O.3     1  UNL1       -0.3572
      9 N         137.9829  138.5992  162.0201 N.3     1  UNL1       -0.2926
     10 H         137.2213  138.5688  161.3423 H       1  UNL1        0.1236
     11 C         139.2224  138.1598  161.2986 C.3     1  UNL1        0.1152
     12 C         140.5720  138.4191  161.8999 C.ar    1  UNL1        0.0765
     13 C         141.6661  139.0097  161.0607 C.ar    1  UNL1        0.0193
     14 C         143.0156  139.2689  161.6620 C.ar    1  UNL1        0.0411
     15 C         143.2710  138.9376  163.1024 C.ar    1  UNL1        0.1708
     16 C         142.1769  138.3471  163.9416 C.ar    1  UNL1        0.1682
     17 N         140.8274  138.0878  163.3404 N.ar    1  UNL1       -0.2304
     18 N         142.4324  138.0158  165.3822 N.am    1  UNL1       -0.2639
     19 C         143.7820  138.2751  165.9834 C.2     1  UNL1        0.2718
     20 O         144.0375  137.9438  167.4239 O.2     1  UNL1       -0.2707
     21 C         144.8760  138.8656  165.1442 C.3     1  UNL1        0.2898
     22 O         144.6206  139.1969  163.7038 O.3     1  UNL1       -0.4628
     23 H         141.7144  137.6282  165.9330 H       1  UNL1        0.1565
     24 C         137.7788  144.0060  164.6135 C.3     1  UNL1        0.0320
     25 C         139.0472  144.7673  164.8612 C.3     1  UNL1        0.0327
     26 C         142.4130  142.3353  166.5951 C.ar    1  UNL1        0.2249
     27 C         143.6330  142.0484  165.7710 C.ar    1  UNL1        0.0593
     28 C         143.7311  142.5722  164.3689 C.ar    1  UNL1        0.0254
     29 C         142.6092  143.3829  163.7909 C.ar    1  UNL1        0.0990
     30 N         142.7073  143.9067  162.3887 N.ar    1  UNL1       -0.2400
     31 C         141.5854  144.7174  161.8107 C.ar    1  UNL1        0.1281
     32 C         140.3653  145.0043  162.6349 C.ar    1  UNL1        0.1566
     33 F         139.2434  145.8150  162.0570 F       1  UNL1       -0.2028
     34 C         140.2672  144.4805  164.0370 C.ar    1  UNL1        0.0261
     35 C         141.3892  143.6698  164.6150 C.ar    1  UNL1        0.1002
     36 N         141.2911  143.1460  166.0171 N.ar    1  UNL1       -0.2104
     37 O         142.3149  141.8115  167.9973 O.3     1  UNL1       -0.4591
     38 C         141.5493  140.5520  168.2755 C.3     1  UNL1        0.2209
     39 C         140.3410  140.5894  169.1636 C.3     1  UNL1        0.1196
     40 C         138.9337  140.3796  169.6384 C.3     1  UNL1        0.0189
     41 C         139.3484  139.8909  168.2823 C.3     1  UNL1        0.0189
     42 N         141.4872  142.0122  171.5430 N.1     1  UNL1       -0.1958
     43 C         140.9141  141.3008  170.3533 C.1     1  UNL1        0.0748
@<TRIPOS>BOND
     1    42    43    3
     2    43    39    1
     3    39    38    1
     4    38    37    1
     5    37    26    1
     6    26    27   ar
     7    27    28   ar
     8    28    29   ar
     9    29    30   ar
    10    30    31   ar
    11    31    32   ar
    12    32    33    1
    13    32    34   ar
    14    34    25    1
    15    25    24    1
    16    24     1    1
    17     1     2    1
    18     2     3    1
    19     3     4    1
    20     4     9    1
    21     9    11    1
    22    11    12    1
    23    12    13   ar
    24    13    14   ar
    25    14    15   ar
    26    15    16   ar
    27    16    17   ar
    28    16    18    1
    29    18    19   am
    30    19    20    2
    31    19    21    1
    32    21    22    1
    33     4     5    1
    34     5     6    1
    35     4     7    1
    36     7     8    1
    37    34    35   ar
    38    35    36   ar
    39    39    40    1
    40    40    41    1
    41    41    39    1
    42    36    26   ar
    43    35    29   ar
    44     6     1    1
    45     8     1    1
    46    17    12   ar
    47    22    15    1
    48     9    10    1
    49    18    23    1
@<TRIPOS>MOLECULE
*****
 43 49 0 0 0
SMALL
GASTEIGER

@<TRIPOS>ATOM
      1 C         143.6831  142.1719  163.5590 C.3     1  UNL1        0.0932
      2 C         142.8825  142.7328  164.6967 C.3     1  UNL1        0.0286
      3 C         142.0845  143.9884  164.5050 C.3     1  UNL1        0.0193
      4 C         142.0872  144.6831  163.1756 C.3     1  UNL1        0.0700
      5 C         142.8879  144.1222  162.0378 C.3     1  UNL1        0.0193
      6 C         143.6858  142.8667  162.2296 C.3     1  UNL1        0.0286
      7 C         142.5400  143.9978  163.2327 C.3     1  UNL1        0.1562
      8 O         143.2615  142.8625  163.4060 O.3     1  UNL1       -0.3572
      9 N         141.2893  145.9387  162.9839 N.3     1  UNL1       -0.2926
     10 H         141.8282  146.5375  162.3582 H       1  UNL1        0.1236
     11 C         139.8998  145.8661  162.4234 C.3     1  UNL1        0.1152
     12 C         139.2331  144.5347  162.2416 C.ar    1  UNL1        0.0765
     13 C         138.4112  143.9497  163.3517 C.ar    1  UNL1        0.0193
     14 C         137.7444  142.6184  163.1699 C.ar    1  UNL1        0.0411
     15 C         137.8996  141.8721  161.8780 C.ar    1  UNL1        0.1708
     16 C         138.7216  142.4571  160.7680 C.ar    1  UNL1        0.1682
     17 N         139.3883  143.7884  160.9498 N.ar    1  UNL1       -0.2304
     18 N         138.8768  141.7107  159.4761 N.am    1  UNL1       -0.2639
     19 C         138.2100  140.3794  159.2943 C.2     1  UNL1        0.2718
     20 O         138.3652  139.6330  158.0024 O.2     1  UNL1       -0.2707
     21 C         137.3881  139.7944  160.4044 C.3     1  UNL1        0.2898
     22 O         137.2329  140.5408  161.6962 O.3     1  UNL1       -0.4628
     23 H         139.4162  142.0946  158.7475 H       1  UNL1        0.1565
     24 C         144.4811  140.9163  163.7506 C.3     1  UNL1        0.0320
     25 C         143.8189  139.6811  164.2852 C.3     1  UNL1        0.0327
     26 C         139.6763  139.4156  166.0224 C.ar    1  UNL1        0.2249
     27 C         138.5769  138.7569  165.2430 C.ar    1  UNL1        0.0593
     28 C         138.8585  138.1867  163.8845 C.ar    1  UNL1        0.0254
     29 C         140.2394  138.2752  163.3055 C.ar    1  UNL1        0.0990
     30 N         140.5209  137.7049  161.9469 N.ar    1  UNL1       -0.2400
     31 C         141.9018  137.7934  161.3678 C.ar    1  UNL1        0.1281
     32 C         143.0011  138.4522  162.1473 C.ar    1  UNL1        0.1566
     33 F         144.3820  138.5407  161.5682 F       1  UNL1       -0.2028
     34 C         142.7196  139.0224  163.5058 C.ar    1  UNL1        0.0261
     35 C         141.3387  138.9339  164.0849 C.ar    1  UNL1        0.1002
     36 N         141.0572  139.5041  165.4433 N.ar    1  UNL1       -0.2104
     37 O         139.3948  139.9859  167.3810 O.3     1  UNL1       -0.4591
     38 C         140.4012  140.8801  168.0423 C.3     1  UNL1        0.2209
     39 C         140.0182  141.6695  169.2590 C.3     1  UNL1        0.1196
     40 C         139.9518  142.8005  170.2420 C.3     1  UNL1        0.0189
     41 C         140.7967  142.9271  169.0090 C.3     1  UNL1        0.0189
     42 N         138.1952  139.7026  170.6034 N.1     1  UNL1       -0.1958
     43 C         139.1067  140.6861  169.9312 C.1     1  UNL1        0.0748
@<TRIPOS>BOND
     1    42    43    3
     2    43    39    1
     3    39    38    1
     4    38    37    1
     5    37    26    1
     6    26    27   ar
     7    27    28   ar
     8    28    29   ar
     9    29    30   ar
    10    30    31   ar
    11    31    32   ar
    12    32    33    1
    13    32    34   ar
    14    34    25    1
    15    25    24    1
    16    24     1    1
    17     1     2    1
    18     2     3    1
    19     3     4    1
    20     4     9    1
    21     9    11    1
    22    11    12    1
    23    12    13   ar
    24    13    14   ar
    25    14    15   ar
    26    15    16   ar
    27    16    17   ar
    28    16    18    1
    29    18    19   am
    30    19    20    2
    31    19    21    1
    32    21    22    1
    33     4     5    1
    34     5     6    1
    35     4     7    1
    36     7     8    1
    37    34    35   ar
    38    35    36   ar
    39    39    40    1
    40    40    41    1
    41    41    39    1
    42    36    26   ar
    43    35    29   ar
    44     6     1    1
    45     8     1    1
    46    17    12   ar
    47    22    15    1
    48     9    10    1
    49    18    23    1
@<TRIPOS>MOLECULE
*****
 43 49 0 0 0
SMALL
GASTEIGER

@<TRIPOS>ATOM
      1 C         138.9947  143.8337  163.0001 C.3     1  UNL1        0.0932
      2 C         139.6297  143.8536  161.6412 C.3     1  UNL1        0.0286
      3 C         141.0389  144.3411  161.4789 C.3     1  UNL1        0.0193
      4 C         141.8132  144.8088  162.6755 C.3     1  UNL1        0.0700
      5 C         141.1782  144.7890  164.0344 C.3     1  UNL1        0.0193
      6 C         139.7690  144.3014  164.1966 C.3     1  UNL1        0.0286
      7 C         141.0438  144.5504  162.8141 C.3     1  UNL1        0.1562
      8 O         139.7695  144.1096  162.9608 O.3     1  UNL1       -0.3572
      9 N         143.2224  145.2964  162.5132 N.3     1  UNL1       -0.2926
     10 H         143.2821  146.1915  162.9987 H       1  UNL1        0.1236
     11 C         144.3666  144.4602  163.0047 C.3     1  UNL1        0.1152
     12 C         144.2980  142.9647  162.9091 C.ar    1  UNL1        0.0765
     13 C         144.5638  142.1227  164.1217 C.ar    1  UNL1        0.0193
     14 C         144.4952  140.6274  164.0261 C.ar    1  UNL1        0.0411
     15 C         144.1609  139.9740  162.7180 C.ar    1  UNL1        0.1708
     16 C         143.8951  140.8161  161.5054 C.ar    1  UNL1        0.1682
     17 N         143.9637  142.3114  161.6010 N.ar    1  UNL1       -0.2304
     18 N         143.5607  140.1627  160.1972 N.am    1  UNL1       -0.2639
     19 C         143.4922  138.6673  160.1016 C.2     1  UNL1        0.2718
     20 O         143.1578  138.0139  158.7934 O.2     1  UNL1       -0.2707
     21 C         143.7580  137.8253  161.3142 C.3     1  UNL1        0.2898
     22 O         144.0923  138.4786  162.6223 O.3     1  UNL1       -0.4628
     23 H         143.3863  140.7153  159.4013 H       1  UNL1        0.1565
     24 C         137.5854  143.3462  163.1624 C.3     1  UNL1        0.0320
     25 C         137.3224  141.9025  163.4733 C.3     1  UNL1        0.0327
     26 C         140.1677  140.7326  166.7574 C.ar    1  UNL1        0.2249
     27 C         141.2289  139.7044  166.4994 C.ar    1  UNL1        0.0593
     28 C         141.3417  139.0662  165.1467 C.ar    1  UNL1        0.0254
     29 C         140.3933  139.4562  164.0520 C.ar    1  UNL1        0.0990
     30 N         140.5061  138.8179  162.6992 N.ar    1  UNL1       -0.2400
     31 C         139.5576  139.2079  161.6045 C.ar    1  UNL1        0.1281
     32 C         138.4964  140.2361  161.8626 C.ar    1  UNL1        0.1566
     33 F         137.5479  140.6261  160.7679 F       1  UNL1       -0.2028
     34 C         138.3836  140.8743  163.2153 C.ar    1  UNL1        0.0261
     35 C         139.3321  140.4844  164.3100 C.ar    1  UNL1        0.1002
     36 N         139.2193  141.1226  165.6627 N.ar    1  UNL1       -0.2104
     37 O         140.0549  141.3709  168.1102 O.3     1  UNL1       -0.4591
     38 C         140.9447  142.5228  168.4725 C.3     1  UNL1        0.2209
     39 C         142.1374  142.3007  169.3548 C.3     1  UNL1        0.1196
     40 C         143.5668  142.1285  169.7755 C.3     1  UNL1        0.0189
     41 C         143.2332  142.3670  168.3327 C.3     1  UNL1        0.0189
     42 N         140.7738  142.0139  172.0115 N.1     1  UNL1       -0.1958
     43 C         141.4556  142.1574  170.6831 C.1     1  UNL1        0.0748
@<TRIPOS>BOND
     1    42    43    3
     2    43    39    1
     3    39    38    1
     4    38    37    1
     5    37    26    1
     6    26    27   ar
     7    27    28   ar
     8    28    29   ar
     9    29    30   ar
    10    30    31   ar
    11    31    32   ar
    12    32    33    1
    13    32    34   ar
    14    34    25    1
    15    25    24    1
    16    24     1    1
    17     1     2    1
    18     2     3    1
    19     3     4    1
    20     4     9    1
    21     9    11    1
    22    11    12    1
    23    12    13   ar
    24    13    14   ar
    25    14    15   ar
    26    15    16   ar
    27    16    17   ar
    28    16    18    1
    29    18    19   am
    30    19    20    2
    31    19    21    1
    32    21    22    1
    33     4     5    1
    34     5     6    1
    35     4     7    1
    36     7     8    1
    37    34    35   ar
    38    35    36   ar
    39    39    40    1
    40    40    41    1
    41    41    39    1
    42    36    26   ar
    43    35    29   ar
    44     6     1    1
    45     8     1    1
    46    17    12   ar
    47    22    15    1
    48     9    10    1
    49    18    23    1
@<TRIPOS>MOLECULE
*****
 43 49 0 0 0
SMALL
GASTEIGER

@<TRIPOS>ATOM
      1 C         137.8111  142.1377  163.4417 C.3     1  UNL1        0.0932
      2 C         137.8905  141.2039  164.6129 C.3     1  UNL1        0.0286
      3 C         138.2943  139.7741  164.4061 C.3     1  UNL1        0.0193
      4 C         138.6186  139.2781  163.0281 C.3     1  UNL1        0.0700
      5 C         138.5391  140.2120  161.8569 C.3     1  UNL1        0.0193
      6 C         138.1354  141.6418  162.0637 C.3     1  UNL1        0.0286
      7 C         138.4021  140.0700  163.0919 C.3     1  UNL1        0.1562
      8 O         138.0371  141.3629  163.2789 O.3     1  UNL1       -0.3572
      9 N         139.0223  137.8484  162.8213 N.3     1  UNL1       -0.2926
     10 H         139.2230  137.7400  161.8271 H       1  UNL1        0.1236
     11 C         140.1978  137.2861  163.5641 C.3     1  UNL1        0.1152
     12 C         141.4376  138.1117  163.7418 C.ar    1  UNL1        0.0765
     13 C         142.2539  137.9793  164.9932 C.ar    1  UNL1        0.0193
     14 C         143.4935  138.8049  165.1709 C.ar    1  UNL1        0.0411
     15 C         143.9169  139.7629  164.0972 C.ar    1  UNL1        0.1708
     16 C         143.1006  139.8953  162.8458 C.ar    1  UNL1        0.1682
     17 N         141.8609  139.0697  162.6681 N.ar    1  UNL1       -0.2304
     18 N         143.5240  140.8534  161.7720 N.am    1  UNL1       -0.2639
     19 C         144.7636  141.6789  161.9497 C.2     1  UNL1        0.2718
     20 O         145.1870  142.6370  160.8759 O.2     1  UNL1       -0.2707
     21 C         145.5800  141.5465  163.2011 C.3     1  UNL1        0.2898
     22 O         145.1566  140.5885  164.2748 O.3     1  UNL1       -0.4628
     23 H         142.9882  140.9403  160.9506 H       1  UNL1        0.1565
     24 C         137.4074  143.5675  163.6485 C.3     1  UNL1        0.0320
     25 C         138.3780  144.5418  164.2473 C.3     1  UNL1        0.0327
     26 C         140.9127  142.3363  167.2408 C.ar    1  UNL1        0.2249
     27 C         142.3842  142.1721  167.0013 C.ar    1  UNL1        0.0593
     28 C         143.0110  142.7430  165.7639 C.ar    1  UNL1        0.0254
     29 C         142.1661  143.4782  164.7661 C.ar    1  UNL1        0.0990
     30 N         142.7929  144.0492  163.5286 N.ar    1  UNL1       -0.2400
     31 C         141.9480  144.7844  162.5308 C.ar    1  UNL1        0.1281
     32 C         140.4763  144.9486  162.7704 C.ar    1  UNL1        0.1566
     33 F         139.6315  145.6838  161.7725 F       1  UNL1       -0.2028
     34 C         139.8496  144.3776  164.0078 C.ar    1  UNL1        0.0261
     35 C         140.6945  143.6424  165.0056 C.ar    1  UNL1        0.1002
     36 N         140.0678  143.0714  166.2430 N.ar    1  UNL1       -0.2104
     37 O         140.2859  141.7653  168.4783 O.3     1  UNL1       -0.4591
     38 C         140.6393  140.3781  168.9264 C.3     1  UNL1        0.2209
     39 C         141.6929  140.1740  169.9744 C.3     1  UNL1        0.1196
     40 C         142.9138  139.6355  170.6595 C.3     1  UNL1        0.0189
     41 C         142.5402  139.1401  169.2938 C.3     1  UNL1        0.0189
     42 N         140.7301  142.1001  172.0631 N.1     1  UNL1       -0.1958
     43 C         141.2115  141.1371  171.0187 C.1     1  UNL1        0.0748
@<TRIPOS>BOND
     1    42    43    3
     2    43    39    1
     3    39    38    1
     4    38    37    1
     5    37    26    1
     6    26    27   ar
     7    27    28   ar
     8    28    29   ar
     9    29    30   ar
    10    30    31   ar
    11    31    32   ar
    12    32    33    1
    13    32    34   ar
    14    34    25    1
    15    25    24    1
    16    24     1    1
    17     1     2    1
    18     2     3    1
    19     3     4    1
    20     4     9    1
    21     9    11    1
    22    11    12    1
    23    12    13   ar
    24    13    14   ar
    25    14    15   ar
    26    15    16   ar
    27    16    17   ar
    28    16    18    1
    29    18    19   am
    30    19    20    2
    31    19    21    1
    32    21    22    1
    33     4     5    1
    34     5     6    1
    35     4     7    1
    36     7     8    1
    37    34    35   ar
    38    35    36   ar
    39    39    40    1
    40    40    41    1
    41    41    39    1
    42    36    26   ar
    43    35    29   ar
    44     6     1    1
    45     8     1    1
    46    17    12   ar
    47    22    15    1
    48     9    10    1
    49    18    23    1
@<TRIPOS>MOLECULE
*****
 43 49 0 0 0
SMALL
GASTEIGER

@<TRIPOS>ATOM
      1 C         138.5316  139.7271  164.3336 C.3     1  UNL1        0.0932
      2 C         138.2619  139.8075  162.8603 C.3     1  UNL1        0.0286
      3 C         137.8821  141.1184  162.2378 C.3     1  UNL1        0.0193
      4 C         137.7720  142.3488  163.0887 C.3     1  UNL1        0.0700
      5 C         138.0417  142.2683  164.5621 C.3     1  UNL1        0.0193
      6 C         138.4215  140.9575  165.1845 C.3     1  UNL1        0.0286
      7 C         137.9832  141.6529  163.4749 C.3     1  UNL1        0.1562
      8 O         138.3266  140.4676  164.0377 O.3     1  UNL1       -0.3572
      9 N         137.3921  143.6596  162.4663 N.3     1  UNL1       -0.2926
     10 H         136.5656  143.9927  162.9625 H       1  UNL1        0.1236
     11 C         138.3734  144.7940  162.4492 C.3     1  UNL1        0.1152
     12 C         139.8379  144.5164  162.2806 C.ar    1  UNL1        0.0765
     13 C         140.8361  145.1849  163.1787 C.ar    1  UNL1        0.0193
     14 C         142.3005  144.9074  163.0102 C.ar    1  UNL1        0.0411
     15 C         142.7667  143.9614  161.9435 C.ar    1  UNL1        0.1708
     16 C         141.7684  143.2930  161.0454 C.ar    1  UNL1        0.1682
     17 N         140.3040  143.5705  161.2139 N.ar    1  UNL1       -0.2304
     18 N         142.2346  142.3470  159.9786 N.am    1  UNL1       -0.2639
     19 C         143.6990  142.0695  159.8101 C.2     1  UNL1        0.2718
     20 O         144.1652  141.1235  158.7434 O.2     1  UNL1       -0.2707
     21 C         144.6973  142.7379  160.7082 C.3     1  UNL1        0.2898
     22 O         144.2311  143.6839  161.7749 O.3     1  UNL1       -0.4628
     23 H         141.5794  141.9082  159.3892 H       1  UNL1        0.1565
     24 C         138.9114  138.4162  164.9561 C.3     1  UNL1        0.0320
     25 C         140.3435  138.1391  165.3061 C.3     1  UNL1        0.0327
     26 C         142.6321  141.7704  166.6573 C.ar    1  UNL1        0.2249
     27 C         143.7336  142.3237  165.8026 C.ar    1  UNL1        0.0593
     28 C         144.0722  141.6666  164.4975 C.ar    1  UNL1        0.0254
     29 C         143.3093  140.4561  164.0471 C.ar    1  UNL1        0.0990
     30 N         143.6480  139.7990  162.7418 N.ar    1  UNL1       -0.2400
     31 C         142.8851  138.5885  162.2914 C.ar    1  UNL1        0.1281
     32 C         141.7836  138.0353  163.1462 C.ar    1  UNL1        0.1566
     33 F         141.0207  136.8248  162.6958 F       1  UNL1       -0.2028
     34 C         141.4450  138.6924  164.4513 C.ar    1  UNL1        0.0261
     35 C         142.2079  139.9028  164.9018 C.ar    1  UNL1        0.1002
     36 N         141.8692  140.5600  166.2069 N.ar    1  UNL1       -0.2104
     37 O         142.2935  142.4276  167.9626 O.3     1  UNL1       -0.4591
     38 C         141.9176  141.5900  169.1487 C.3     1  UNL1        0.2209
     39 C         140.5010  141.5810  169.6420 C.3     1  UNL1        0.1196
     40 C         139.1499  141.0643  170.0389 C.3     1  UNL1        0.0189
     41 C         140.1975  140.1159  169.5359 C.3     1  UNL1        0.0189
     42 N         140.1242  144.5051  170.1966 N.1     1  UNL1       -0.1958
     43 C         140.3126  143.0431  169.9193 C.1     1  UNL1        0.0748
@<TRIPOS>BOND
     1    42    43    3
     2    43    39    1
     3    39    38    1
     4    38    37    1
     5    37    26    1
     6    26    27   ar
     7    27    28   ar
     8    28    29   ar
     9    29    30   ar
    10    30    31   ar
    11    31    32   ar
    12    32    33    1
    13    32    34   ar
    14    34    25    1
    15    25    24    1
    16    24     1    1
    17     1     2    1
    18     2     3    1
    19     3     4    1
    20     4     9    1
    21     9    11    1
    22    11    12    1
    23    12    13   ar
    24    13    14   ar
    25    14    15   ar
    26    15    16   ar
    27    16    17   ar
    28    16    18    1
    29    18    19   am
    30    19    20    2
    31    19    21    1
    32    21    22    1
    33     4     5    1
    34     5     6    1
    35     4     7    1
    36     7     8    1
    37    34    35   ar
    38    35    36   ar
    39    39    40    1
    40    40    41    1
    41    41    39    1
    42    36    26   ar
    43    35    29   ar
    44     6     1    1
    45     8     1    1
    46    17    12   ar
    47    22    15    1
    48     9    10    1
    49    18    23    1
@<TRIPOS>MOLECULE
*****
 43 49 0 0 0
SMALL
GASTEIGER

@<TRIPOS>ATOM
      1 C         142.9918  138.7586  163.2578 C.3     1  UNL1        0.0932
      2 C         142.8403  139.0135  161.7874 C.3     1  UNL1        0.0286
      3 C         141.5295  138.7426  161.1104 C.3     1  UNL1        0.0193
      4 C         140.3701  138.2169  161.9038 C.3     1  UNL1        0.0700
      5 C         140.5216  137.9621  163.3742 C.3     1  UNL1        0.0193
      6 C         141.8324  138.2329  164.0512 C.3     1  UNL1        0.0286
      7 C         141.0687  138.3501  162.3187 C.3     1  UNL1        0.1562
      8 O         142.2540  138.5951  162.9309 O.3     1  UNL1       -0.3572
      9 N         139.0593  137.9461  161.2268 N.3     1  UNL1       -0.2926
     10 H         138.7481  137.0280  161.5442 H       1  UNL1        0.1236
     11 C         137.9062  138.8854  161.4219 C.3     1  UNL1        0.1152
     12 C         138.1572  140.3526  161.6078 C.ar    1  UNL1        0.0765
     13 C         137.4221  141.1100  162.6736 C.ar    1  UNL1        0.0193
     14 C         137.6730  142.5771  162.8595 C.ar    1  UNL1        0.0411
     15 C         138.6591  143.2867  161.9797 C.ar    1  UNL1        0.1708
     16 C         139.3942  142.5293  160.9140 C.ar    1  UNL1        0.1682
     17 N         139.1433  141.0622  160.7281 N.ar    1  UNL1       -0.2304
     18 N         140.3804  143.2389  160.0342 N.am    1  UNL1       -0.2639
     19 C         140.6313  144.7060  160.2202 C.2     1  UNL1        0.2718
     20 O         141.6174  145.4157  159.3403 O.2     1  UNL1       -0.2707
     21 C         139.8962  145.4635  161.2859 C.3     1  UNL1        0.2898
     22 O         138.9101  144.7539  162.1657 O.3     1  UNL1       -0.4628
     23 H         140.8629  142.7418  159.3347 H       1  UNL1        0.1565
     24 C         144.3026  139.0295  163.9349 C.3     1  UNL1        0.0320
     25 C         144.4900  140.2872  164.7304 C.3     1  UNL1        0.0327
     26 C         140.6033  141.7350  166.4761 C.ar    1  UNL1        0.2249
     27 C         139.9995  143.0221  165.9977 C.ar    1  UNL1        0.0593
     28 C         140.6913  143.8265  164.9374 C.ar    1  UNL1        0.0254
     29 C         141.9869  143.3439  164.3555 C.ar    1  UNL1        0.0990
     30 N         142.6786  144.1484  163.2951 N.ar    1  UNL1       -0.2400
     31 C         143.9742  143.6658  162.7132 C.ar    1  UNL1        0.1281
     32 C         144.5780  142.3787  163.1917 C.ar    1  UNL1        0.1566
     33 F         145.8736  141.8961  162.6098 F       1  UNL1       -0.2028
     34 C         143.8862  141.5743  164.2520 C.ar    1  UNL1        0.0261
     35 C         142.5907  142.0569  164.8339 C.ar    1  UNL1        0.1002
     36 N         141.8989  141.2524  165.8942 N.ar    1  UNL1       -0.2104
     37 O         139.9116  140.9305  167.5365 O.3     1  UNL1       -0.4591
     38 C         139.9029  141.4119  168.9571 C.3     1  UNL1        0.2209
     39 C         141.1079  142.1044  169.5217 C.3     1  UNL1        0.1196
     40 C         141.9807  143.1977  170.0629 C.3     1  UNL1        0.0189
     41 C         140.5703  143.4988  169.6504 C.3     1  UNL1        0.0189
     42 N         143.0197  139.7965  169.6561 N.1     1  UNL1       -0.1958
     43 C         142.0638  140.9504  169.5890 C.1     1  UNL1        0.0748
@<TRIPOS>BOND
     1    42    43    3
     2    43    39    1
     3    39    38    1
     4    38    37    1
     5    37    26    1
     6    26    27   ar
     7    27    28   ar
     8    28    29   ar
     9    29    30   ar
    10    30    31   ar
    11    31    32   ar
    12    32    33    1
    13    32    34   ar
    14    34    25    1
    15    25    24    1
    16    24     1    1
    17     1     2    1
    18     2     3    1
    19     3     4    1
    20     4     9    1
    21     9    11    1
    22    11    12    1
    23    12    13   ar
    24    13    14   ar
    25    14    15   ar
    26    15    16   ar
    27    16    17   ar
    28    16    18    1
    29    18    19   am
    30    19    20    2
    31    19    21    1
    32    21    22    1
    33     4     5    1
    34     5     6    1
    35     4     7    1
    36     7     8    1
    37    34    35   ar
    38    35    36   ar
    39    39    40    1
    40    40    41    1
    41    41    39    1
    42    36    26   ar
    43    35    29   ar
    44     6     1    1
    45     8     1    1
    46    17    12   ar
    47    22    15    1
    48     9    10    1
    49    18    23    1
@<TRIPOS>MOLECULE
*****
 43 49 0 0 0
SMALL
GASTEIGER

@<TRIPOS>ATOM
      1 C         137.9362  142.6726  163.9030 C.3     1  UNL1        0.0932
      2 C         138.2176  141.5308  164.8343 C.3     1  UNL1        0.0286
      3 C         138.2672  140.1275  164.3068 C.3     1  UNL1        0.0193
      4 C         138.0354  139.8659  162.8481 C.3     1  UNL1        0.0700
      5 C         137.7540  141.0077  161.9168 C.3     1  UNL1        0.0193
      6 C         137.7044  142.4110  162.4443 C.3     1  UNL1        0.0286
      7 C         137.9982  140.6519  163.0906 C.3     1  UNL1        0.1562
      8 O         137.9534  141.9208  163.5676 O.3     1  UNL1       -0.3572
      9 N         138.0850  138.4626  162.3206 N.3     1  UNL1       -0.2926
     10 H         137.8007  138.5057  161.3419 H       1  UNL1        0.1236
     11 C         139.3697  137.6898  162.3648 C.3     1  UNL1        0.1152
     12 C         140.5394  138.1311  161.5356 C.ar    1  UNL1        0.0765
     13 C         141.9367  137.8255  161.9873 C.ar    1  UNL1        0.0193
     14 C         143.1063  138.2668  161.1583 C.ar    1  UNL1        0.0411
     15 C         142.8785  139.0136  159.8776 C.ar    1  UNL1        0.1708
     16 C         141.4811  139.3192  159.4259 C.ar    1  UNL1        0.1682
     17 N         140.3116  138.8779  160.2549 N.ar    1  UNL1       -0.2304
     18 N         141.2534  140.0661  158.1451 N.am    1  UNL1       -0.2639
     19 C         142.4230  140.5073  157.3160 C.2     1  UNL1        0.2718
     20 O         142.1952  141.2542  156.0352 O.2     1  UNL1       -0.2707
     21 C         143.8203  140.2017  157.7677 C.3     1  UNL1        0.2898
     22 O         144.0481  139.4549  159.0485 O.3     1  UNL1       -0.4628
     23 H         140.3363  140.2666  157.8486 H       1  UNL1        0.1565
     24 C         137.8866  144.0759  164.4305 C.3     1  UNL1        0.0320
     25 C         139.1600  144.8240  164.6929 C.3     1  UNL1        0.0327
     26 C         142.8042  142.4551  165.8584 C.ar    1  UNL1        0.2249
     27 C         143.9558  142.3329  164.9051 C.ar    1  UNL1        0.0593
     28 C         143.8927  143.0004  163.5633 C.ar    1  UNL1        0.0254
     29 C         142.6780  143.7900  163.1748 C.ar    1  UNL1        0.0990
     30 N         142.6149  144.4575  161.8329 N.ar    1  UNL1       -0.2400
     31 C         141.4002  145.2471  161.4444 C.ar    1  UNL1        0.1281
     32 C         140.2485  145.3693  162.3978 C.ar    1  UNL1        0.1566
     33 F         139.0338  146.1589  162.0093 F       1  UNL1       -0.2028
     34 C         140.3116  144.7018  163.7396 C.ar    1  UNL1        0.0261
     35 C         141.5263  143.9122  164.1281 C.ar    1  UNL1        0.1002
     36 N         141.5895  143.2447  165.4699 N.ar    1  UNL1       -0.2104
     37 O         142.8672  141.7876  167.2003 O.3     1  UNL1       -0.4591
     38 C         142.9210  140.2914  167.2919 C.3     1  UNL1        0.2209
     39 C         141.9419  139.4570  166.5203 C.3     1  UNL1        0.1196
     40 C         141.4022  138.5049  165.4946 C.3     1  UNL1        0.0189
     41 C         142.8667  138.8281  165.5207 C.3     1  UNL1        0.0189
     42 N         139.4126  140.1355  167.9838 N.1     1  UNL1       -0.1958
     43 C         140.6772  139.7962  167.2520 C.1     1  UNL1        0.0748
@<TRIPOS>BOND
     1    42    43    3
     2    43    39    1
     3    39    38    1
     4    38    37    1
     5    37    26    1
     6    26    27   ar
     7    27    28   ar
     8    28    29   ar
     9    29    30   ar
    10    30    31   ar
    11    31    32   ar
    12    32    33    1
    13    32    34   ar
    14    34    25    1
    15    25    24    1
    16    24     1    1
    17     1     2    1
    18     2     3    1
    19     3     4    1
    20     4     9    1
    21     9    11    1
    22    11    12    1
    23    12    13   ar
    24    13    14   ar
    25    14    15   ar
    26    15    16   ar
    27    16    17   ar
    28    16    18    1
    29    18    19   am
    30    19    20    2
    31    19    21    1
    32    21    22    1
    33     4     5    1
    34     5     6    1
    35     4     7    1
    36     7     8    1
    37    34    35   ar
    38    35    36   ar
    39    39    40    1
    40    40    41    1
    41    41    39    1
    42    36    26   ar
    43    35    29   ar
    44     6     1    1
    45     8     1    1
    46    17    12   ar
    47    22    15    1
    48     9    10    1
    49    18    23    1
@<TRIPOS>MOLECULE
*****
 43 49 0 0 0
SMALL
GASTEIGER

@<TRIPOS>ATOM
      1 C         143.3790  140.1330  159.6098 C.3     1  UNL1        0.0932
      2 C         142.1464  139.3849  159.1967 C.3     1  UNL1        0.0286
      3 C         141.5417  138.3681  160.1191 C.3     1  UNL1        0.0193
      4 C         142.1699  138.0995  161.4545 C.3     1  UNL1        0.0700
      5 C         143.4026  138.8478  161.8675 C.3     1  UNL1        0.0193
      6 C         144.0072  139.8645  160.9452 C.3     1  UNL1        0.0286
      7 C         142.5373  138.6659  160.9831 C.3     1  UNL1        0.1562
      8 O         143.0839  139.5853  160.1491 O.3     1  UNL1       -0.3572
      9 N         141.5653  137.0828  162.3768 N.3     1  UNL1       -0.2926
     10 H         142.3393  136.5593  162.7859 H       1  UNL1        0.1236
     11 C         140.6936  137.5264  163.5140 C.3     1  UNL1        0.1152
     12 C         139.8128  138.7306  163.3584 C.ar    1  UNL1        0.0765
     13 C         138.6872  138.7134  162.3670 C.ar    1  UNL1        0.0193
     14 C         137.8064  139.9175  162.2114 C.ar    1  UNL1        0.0411
     15 C         138.0511  141.1388  163.0471 C.ar    1  UNL1        0.1708
     16 C         139.1767  141.1560  164.0385 C.ar    1  UNL1        0.1682
     17 N         140.0575  139.9519  164.1941 N.ar    1  UNL1       -0.2304
     18 N         139.4214  142.3774  164.8742 N.am    1  UNL1       -0.2639
     19 C         138.5406  143.5815  164.7186 C.2     1  UNL1        0.2718
     20 O         138.7853  144.8029  165.5543 O.2     1  UNL1       -0.2707
     21 C         137.4151  143.5643  163.7272 C.3     1  UNL1        0.2898
     22 O         137.1703  142.3430  162.8915 O.3     1  UNL1       -0.4628
     23 H         140.1602  142.3887  165.5249 H       1  UNL1        0.1565
     24 C         143.9837  141.1498  158.6874 C.3     1  UNL1        0.0320
     25 C         143.7989  142.6133  158.9599 C.3     1  UNL1        0.0327
     26 C         143.0911  144.6253  162.9223 C.ar    1  UNL1        0.2249
     27 C         141.7308  145.1595  163.2598 C.ar    1  UNL1        0.0593
     28 C         140.6063  145.0230  162.2765 C.ar    1  UNL1        0.0254
     29 C         140.8422  144.3523  160.9557 C.ar    1  UNL1        0.0990
     30 N         139.7177  144.2158  159.9724 N.ar    1  UNL1       -0.2400
     31 C         139.9536  143.5451  158.6516 C.ar    1  UNL1        0.1281
     32 C         141.3141  143.0109  158.3141 C.ar    1  UNL1        0.1566
     33 F         141.5500  142.3402  156.9933 F       1  UNL1       -0.2028
     34 C         142.4385  143.1474  159.2974 C.ar    1  UNL1        0.0261
     35 C         142.2026  143.8181  160.6182 C.ar    1  UNL1        0.1002
     36 N         143.3271  143.9546  161.6015 N.ar    1  UNL1       -0.2104
     37 O         144.2157  144.7618  163.9056 O.3     1  UNL1       -0.4591
     38 C         144.2149  143.9455  165.1640 C.3     1  UNL1        0.2209
     39 C         143.9530  142.4699  165.1006 C.3     1  UNL1        0.1196
     40 C         143.3159  141.1386  165.3687 C.3     1  UNL1        0.0189
     41 C         142.7819  142.3730  166.0329 C.3     1  UNL1        0.0189
     42 N         146.1133  141.6391  163.1921 N.1     1  UNL1       -0.1958
     43 C         145.0331  142.0544  164.1464 C.1     1  UNL1        0.0748
@<TRIPOS>BOND
     1    42    43    3
     2    43    39    1
     3    39    38    1
     4    38    37    1
     5    37    26    1
     6    26    27   ar
     7    27    28   ar
     8    28    29   ar
     9    29    30   ar
    10    30    31   ar
    11    31    32   ar
    12    32    33    1
    13    32    34   ar
    14    34    25    1
    15    25    24    1
    16    24     1    1
    17     1     2    1
    18     2     3    1
    19     3     4    1
    20     4     9    1
    21     9    11    1
    22    11    12    1
    23    12    13   ar
    24    13    14   ar
    25    14    15   ar
    26    15    16   ar
    27    16    17   ar
    28    16    18    1
    29    18    19   am
    30    19    20    2
    31    19    21    1
    32    21    22    1
    33     4     5    1
    34     5     6    1
    35     4     7    1
    36     7     8    1
    37    34    35   ar
    38    35    36   ar
    39    39    40    1
    40    40    41    1
    41    41    39    1
    42    36    26   ar
    43    35    29   ar
    44     6     1    1
    45     8     1    1
    46    17    12   ar
    47    22    15    1
    48     9    10    1
    49    18    23    1
