@<TRIPOS>MOLECULE
*****
 33 36 0 0 0
SMALL
GASTEIGER

@<TRIPOS>ATOM
      1 N         140.9854  143.3117  161.0781 N.3     1  UNL1       -0.1454
      2 S         141.5154  143.1709  162.4743 S.O2    1  UNL1        0.0639
      3 O         142.7904  142.5960  161.9323 O.2     1  UNL1       -0.1528
      4 O         140.2403  143.7457  163.0163 O.2     1  UNL1       -0.1528
      5 C         143.9962  142.3699  169.9383 C.3     1  UNL1        0.0436
      6 C         142.6975  142.3071  169.1904 C.3     1  UNL1        0.1336
      7 C         142.2107  142.0285  170.5816 C.3     1  UNL1        0.0436
      8 C         141.2297  142.1475  168.9257 C.3     1  UNL1        0.0448
      9 C         140.6997  142.2884  167.5295 C.3     1  UNL1        0.0330
     10 C         141.6375  142.5888  166.3981 C.ar    1  UNL1        0.0132
     11 C         141.1075  142.7296  165.0019 C.ar    1  UNL1        0.0186
     12 C         142.0453  143.0300  163.8704 C.ar    1  UNL1        0.1221
     13 C         143.5132  143.1896  164.1351 C.ar    1  UNL1        0.0230
     14 C         144.0432  143.0487  165.5313 C.ar    1  UNL1        0.0379
     15 C         143.1053  142.7483  166.6628 C.ar    1  UNL1        0.1342
     16 O         143.6353  142.6075  168.0589 O.3     1  UNL1       -0.4829
     17 C         141.3712  144.4984  160.2456 C.3     1  UNL1        0.1375
     18 C         140.3251  145.4817  159.8112 C.2     1  UNL1        0.0683
     19 O         140.1539  145.8005  158.3554 O.co2   1  UNL1       -0.5477
     20 O         139.4502  146.1462  160.8324 O.co2   1  UNL1       -0.5477
     21 C         140.0697  142.2660  160.5144 C.3     1  UNL1        0.1225
     22 C         140.1145  140.8642  161.0465 C.ar    1  UNL1       -0.0045
     23 C         140.7623  139.7768  160.2416 C.ar    1  UNL1       -0.0029
     24 C         140.8071  138.3751  160.7738 C.ar    1  UNL1       -0.0003
     25 C         140.2041  138.0608  162.1107 C.ar    1  UNL1       -0.0000
     26 C         139.5562  139.1482  162.9156 C.ar    1  UNL1       -0.0003
     27 C         139.5114  140.5499  162.3835 C.ar    1  UNL1       -0.0029
     28 C         138.9531  138.8338  164.2526 C.ar    1  UNL1       -0.0000
     29 C         138.5225  139.9467  165.1615 C.ar    1  UNL1       -0.0000
     30 C         137.9195  139.6323  166.4984 C.ar    1  UNL1       -0.0000
     31 C         137.7470  138.2050  166.9265 C.ar    1  UNL1        0.0000
     32 C         138.1777  137.0922  166.0177 C.ar    1  UNL1       -0.0000
     33 C         138.7807  137.4066  164.6807 C.ar    1  UNL1       -0.0000
@<TRIPOS>UNITY_ATOM_ATTR
19 1
charge -1
@<TRIPOS>BOND
     1     5     6    1
     2     6     7    1
     3     6     8    1
     4     8     9    1
     5     9    10    1
     6    10    11   ar
     7    11    12   ar
     8    12     2    1
     9     2     3    2
    10     2     4    2
    11     2     1    1
    12     1    17    1
    13    17    18    1
    14    18    19   ar
    15    18    20   ar
    16     1    21    1
    17    21    22    1
    18    22    23   ar
    19    23    24   ar
    20    24    25   ar
    21    25    26   ar
    22    26    28    1
    23    28    29   ar
    24    29    30   ar
    25    30    31   ar
    26    31    32   ar
    27    32    33   ar
    28    26    27   ar
    29    12    13   ar
    30    13    14   ar
    31    14    15   ar
    32    15    16    1
    33    16     6    1
    34    15    10   ar
    35    27    22   ar
    36    33    28   ar
@<TRIPOS>MOLECULE
*****
 33 36 0 0 0
SMALL
GASTEIGER

@<TRIPOS>ATOM
      1 N         137.9788  141.1177  162.0418 N.3     1  UNL1       -0.1454
      2 S         138.3227  140.8629  163.4795 S.O2    1  UNL1        0.0639
      3 O         137.3462  141.9208  163.9005 O.2     1  UNL1       -0.1528
      4 O         139.2992  139.8050  163.0584 O.2     1  UNL1       -0.1528
      5 C         140.3190  139.8001  171.0553 C.3     1  UNL1        0.0436
      6 C         140.5891  140.7982  169.9686 C.3     1  UNL1        0.1336
      7 C         141.3861  141.4060  171.0846 C.3     1  UNL1        0.0436
      8 C         141.1360  142.0074  169.2695 C.3     1  UNL1        0.0448
      9 C         140.7921  142.2622  167.8319 C.3     1  UNL1        0.0330
     10 C         139.9013  141.3078  167.0933 C.ar    1  UNL1        0.0132
     11 C         139.5574  141.5625  165.6557 C.ar    1  UNL1        0.0186
     12 C         138.6666  140.6082  164.9171 C.ar    1  UNL1        0.1221
     13 C         138.1196  139.3989  165.6162 C.ar    1  UNL1        0.0230
     14 C         138.4635  139.1441  167.0538 C.ar    1  UNL1        0.0379
     15 C         139.3544  140.0986  167.7924 C.ar    1  UNL1        0.1342
     16 O         139.6983  139.8439  169.2300 O.3     1  UNL1       -0.4829
     17 C         137.4694  139.9984  161.1828 C.3     1  UNL1        0.1375
     18 C         138.1024  139.7281  159.8500 C.2     1  UNL1        0.0683
     19 O         137.4791  140.2733  158.5993 O.co2   1  UNL1       -0.5477
     20 O         139.3587  138.9126  159.7680 O.co2   1  UNL1       -0.5477
     21 C         138.1443  142.4916  161.4632 C.3     1  UNL1        0.1225
     22 C         139.2611  143.3747  161.9352 C.ar    1  UNL1       -0.0045
     23 C         139.0388  144.8507  162.0830 C.ar    1  UNL1       -0.0029
     24 C         140.1558  145.7338  162.5551 C.ar    1  UNL1       -0.0003
     25 C         141.4948  145.1408  162.8793 C.ar    1  UNL1       -0.0000
     26 C         141.7171  143.6647  162.7315 C.ar    1  UNL1       -0.0003
     27 C         140.6003  142.7817  162.2595 C.ar    1  UNL1       -0.0029
     28 C         143.0562  143.0717  163.0558 C.ar    1  UNL1       -0.0000
     29 C         143.8602  142.4024  161.9808 C.ar    1  UNL1       -0.0000
     30 C         145.1993  141.8095  162.3051 C.ar    1  UNL1       -0.0000
     31 C         145.7344  141.8858  163.7043 C.ar    1  UNL1        0.0000
     32 C         144.9304  142.5551  164.7793 C.ar    1  UNL1       -0.0000
     33 C         143.5913  143.1481  164.4550 C.ar    1  UNL1       -0.0000
@<TRIPOS>UNITY_ATOM_ATTR
19 1
charge -1
@<TRIPOS>BOND
     1     5     6    1
     2     6     7    1
     3     6     8    1
     4     8     9    1
     5     9    10    1
     6    10    11   ar
     7    11    12   ar
     8    12     2    1
     9     2     3    2
    10     2     4    2
    11     2     1    1
    12     1    17    1
    13    17    18    1
    14    18    19   ar
    15    18    20   ar
    16     1    21    1
    17    21    22    1
    18    22    23   ar
    19    23    24   ar
    20    24    25   ar
    21    25    26   ar
    22    26    28    1
    23    28    29   ar
    24    29    30   ar
    25    30    31   ar
    26    31    32   ar
    27    32    33   ar
    28    26    27   ar
    29    12    13   ar
    30    13    14   ar
    31    14    15   ar
    32    15    16    1
    33    16     6    1
    34    15    10   ar
    35    27    22   ar
    36    33    28   ar
@<TRIPOS>MOLECULE
*****
 33 36 0 0 0
SMALL
GASTEIGER

@<TRIPOS>ATOM
      1 N         142.9995  142.0920  160.5473 N.3     1  UNL1       -0.1454
      2 S         143.1422  142.1997  162.0366 S.O2    1  UNL1        0.0639
      3 O         143.9055  140.9086  162.0567 O.2     1  UNL1       -0.1528
      4 O         142.3789  143.4908  162.0164 O.2     1  UNL1       -0.1528
      5 C         143.6962  142.4990  169.9176 C.3     1  UNL1        0.0436
      6 C         143.0179  141.6460  168.8870 C.3     1  UNL1        0.1336
      7 C         142.5583  140.9578  170.1381 C.3     1  UNL1        0.0436
      8 C         142.1800  140.5540  168.2908 C.3     1  UNL1        0.0448
      9 C         142.0373  140.4463  166.8015 C.3     1  UNL1        0.0330
     10 C         142.7325  141.4307  165.9083 C.ar    1  UNL1        0.0132
     11 C         142.5897  141.3230  164.4190 C.ar    1  UNL1        0.0186
     12 C         143.2849  142.3073  163.5259 C.ar    1  UNL1        0.1221
     13 C         144.1229  143.3994  164.1220 C.ar    1  UNL1        0.0230
     14 C         144.2656  143.5070  165.6113 C.ar    1  UNL1        0.0379
     15 C         143.5704  142.5226  166.5045 C.ar    1  UNL1        0.1342
     16 O         143.7131  142.6303  167.9938 O.3     1  UNL1       -0.4829
     17 C         144.2159  142.1474  159.6713 C.3     1  UNL1        0.1375
     18 C         144.2067  141.4728  158.3316 C.2     1  UNL1        0.0683
     19 O         144.3264  139.9802  158.2426 O.co2   1  UNL1       -0.5477
     20 O         144.0778  142.2908  157.0809 O.co2   1  UNL1       -0.5477
     21 C         141.6404  141.9290  159.9339 C.3     1  UNL1        0.1225
     22 C         140.8077  140.7260  160.2646 C.ar    1  UNL1       -0.0045
     23 C         140.4148  139.7652  159.1819 C.ar    1  UNL1       -0.0029
     24 C         139.5821  138.5621  159.5127 C.ar    1  UNL1       -0.0003
     25 C         139.1424  138.3200  160.9262 C.ar    1  UNL1       -0.0000
     26 C         139.5353  139.2809  162.0089 C.ar    1  UNL1       -0.0003
     27 C         140.3679  140.4839  161.6782 C.ar    1  UNL1       -0.0029
     28 C         139.0955  139.0387  163.4225 C.ar    1  UNL1       -0.0000
     29 C         138.6205  140.1839  164.2668 C.ar    1  UNL1       -0.0000
     30 C         138.1808  139.9417  165.6802 C.ar    1  UNL1       -0.0000
     31 C         138.2160  138.5543  166.2494 C.ar    1  UNL1        0.0000
     32 C         138.6909  137.4091  165.4051 C.ar    1  UNL1       -0.0000
     33 C         139.1307  137.6513  163.9916 C.ar    1  UNL1       -0.0000
@<TRIPOS>UNITY_ATOM_ATTR
19 1
charge -1
@<TRIPOS>BOND
     1     5     6    1
     2     6     7    1
     3     6     8    1
     4     8     9    1
     5     9    10    1
     6    10    11   ar
     7    11    12   ar
     8    12     2    1
     9     2     3    2
    10     2     4    2
    11     2     1    1
    12     1    17    1
    13    17    18    1
    14    18    19   ar
    15    18    20   ar
    16     1    21    1
    17    21    22    1
    18    22    23   ar
    19    23    24   ar
    20    24    25   ar
    21    25    26   ar
    22    26    28    1
    23    28    29   ar
    24    29    30   ar
    25    30    31   ar
    26    31    32   ar
    27    32    33   ar
    28    26    27   ar
    29    12    13   ar
    30    13    14   ar
    31    14    15   ar
    32    15    16    1
    33    16     6    1
    34    15    10   ar
    35    27    22   ar
    36    33    28   ar
@<TRIPOS>MOLECULE
*****
 33 36 0 0 0
SMALL
GASTEIGER

@<TRIPOS>ATOM
      1 N         141.5345  138.1753  161.1882 N.3     1  UNL1       -0.1454
      2 S         141.7254  138.4519  162.6500 S.O2    1  UNL1        0.0639
      3 O         140.6593  137.4494  162.9790 O.2     1  UNL1       -0.1528
      4 O         142.7915  139.4545  162.3211 O.2     1  UNL1       -0.1528
      5 C         142.4077  139.9932  170.3745 C.3     1  UNL1        0.0436
      6 C         141.3314  140.0241  169.3301 C.3     1  UNL1        0.1336
      7 C         140.5476  140.4789  170.5254 C.3     1  UNL1        0.0436
      8 C         139.9830  140.2130  168.7008 C.3     1  UNL1        0.0448
      9 C         139.7921  139.9363  167.2390 C.3     1  UNL1        0.0330
     10 C         140.9496  139.4708  166.4064 C.ar    1  UNL1        0.0132
     11 C         140.7587  139.1941  164.9445 C.ar    1  UNL1        0.0186
     12 C         141.9163  138.7286  164.1119 C.ar    1  UNL1        0.1221
     13 C         143.2648  138.5397  164.7411 C.ar    1  UNL1        0.0230
     14 C         143.4557  138.8164  166.2030 C.ar    1  UNL1        0.0379
     15 C         142.2981  139.2819  167.0356 C.ar    1  UNL1        0.1342
     16 O         142.4890  139.5586  168.4975 O.3     1  UNL1       -0.4829
     17 C         142.6704  137.6314  160.3732 C.3     1  UNL1        0.1375
     18 C         142.9069  138.1409  158.9824 C.2     1  UNL1        0.0683
     19 O         143.7278  139.3776  158.7662 O.co2   1  UNL1       -0.5477
     20 O         142.3225  137.4138  157.8078 O.co2   1  UNL1       -0.5477
     21 C         140.2079  138.4425  160.5413 C.3     1  UNL1        0.1225
     22 C         139.6419  139.8316  160.5368 C.ar    1  UNL1       -0.0045
     23 C         139.1128  140.4217  159.2633 C.ar    1  UNL1       -0.0029
     24 C         138.5468  141.8109  159.2589 C.ar    1  UNL1       -0.0003
     25 C         138.5100  142.6098  160.5278 C.ar    1  UNL1       -0.0000
     26 C         139.0391  142.0196  161.8013 C.ar    1  UNL1       -0.0003
     27 C         139.6050  140.6306  161.8058 C.ar    1  UNL1       -0.0029
     28 C         139.0022  142.8186  163.0703 C.ar    1  UNL1       -0.0000
     29 C         137.8011  143.6567  163.3943 C.ar    1  UNL1       -0.0000
     30 C         137.7643  144.4557  164.6632 C.ar    1  UNL1       -0.0000
     31 C         138.9285  144.4165  165.6083 C.ar    1  UNL1        0.0000
     32 C         140.1296  143.5784  165.2843 C.ar    1  UNL1       -0.0000
     33 C         140.1664  142.7795  164.0153 C.ar    1  UNL1       -0.0000
@<TRIPOS>UNITY_ATOM_ATTR
19 1
charge -1
@<TRIPOS>BOND
     1     5     6    1
     2     6     7    1
     3     6     8    1
     4     8     9    1
     5     9    10    1
     6    10    11   ar
     7    11    12   ar
     8    12     2    1
     9     2     3    2
    10     2     4    2
    11     2     1    1
    12     1    17    1
    13    17    18    1
    14    18    19   ar
    15    18    20   ar
    16     1    21    1
    17    21    22    1
    18    22    23   ar
    19    23    24   ar
    20    24    25   ar
    21    25    26   ar
    22    26    28    1
    23    28    29   ar
    24    29    30   ar
    25    30    31   ar
    26    31    32   ar
    27    32    33   ar
    28    26    27   ar
    29    12    13   ar
    30    13    14   ar
    31    14    15   ar
    32    15    16    1
    33    16     6    1
    34    15    10   ar
    35    27    22   ar
    36    33    28   ar
@<TRIPOS>MOLECULE
*****
 33 36 0 0 0
SMALL
GASTEIGER

@<TRIPOS>ATOM
      1 N         139.5481  141.9533  162.7938 N.3     1  UNL1       -0.1454
      2 S         140.1925  141.0194  161.8127 S.O2    1  UNL1        0.0639
      3 O         138.9280  140.9943  161.0061 O.2     1  UNL1       -0.1528
      4 O         141.4569  141.0445  162.6192 O.2     1  UNL1       -0.1528
      5 C         143.2978  136.0808  156.4764 C.3     1  UNL1        0.0436
      6 C         141.9751  136.7379  156.7392 C.3     1  UNL1        0.1336
      7 C         141.6397  135.9639  155.4987 C.3     1  UNL1        0.0436
      8 C         140.5360  137.1261  156.5711 C.3     1  UNL1        0.0448
      9 C         139.8917  138.0600  157.5522 C.3     1  UNL1        0.0330
     10 C         140.6864  138.6057  158.7014 C.ar    1  UNL1        0.0132
     11 C         140.0421  139.5397  159.6825 C.ar    1  UNL1        0.0186
     12 C         140.8368  140.0854  160.8316 C.ar    1  UNL1        0.1221
     13 C         142.2760  139.6972  160.9997 C.ar    1  UNL1        0.0230
     14 C         142.9203  138.7632  160.0186 C.ar    1  UNL1        0.0379
     15 C         142.1255  138.2175  158.8694 C.ar    1  UNL1        0.1342
     16 O         142.7699  137.2836  157.8883 O.3     1  UNL1       -0.4829
     17 C         140.0345  143.3672  162.9140 C.3     1  UNL1        0.1375
     18 C         139.0980  144.4463  163.3706 C.2     1  UNL1        0.0683
     19 O         138.0471  144.9714  162.4379 O.co2   1  UNL1       -0.5477
     20 O         139.2123  145.0002  164.7598 O.co2   1  UNL1       -0.5477
     21 C         138.4174  141.4734  163.6547 C.3     1  UNL1        0.1225
     22 C         138.7015  140.8708  164.9986 C.ar    1  UNL1       -0.0045
     23 C         138.0445  139.5825  165.3969 C.ar    1  UNL1       -0.0029
     24 C         138.3287  138.9799  166.7409 C.ar    1  UNL1       -0.0003
     25 C         139.2698  139.6655  167.6864 C.ar    1  UNL1       -0.0000
     26 C         139.9268  140.9538  167.2881 C.ar    1  UNL1       -0.0003
     27 C         139.6427  141.5565  165.9442 C.ar    1  UNL1       -0.0029
     28 C         140.8679  141.6395  168.2338 C.ar    1  UNL1       -0.0000
     29 C         140.3878  142.7912  169.0662 C.ar    1  UNL1       -0.0000
     30 C         141.3289  143.4768  170.0118 C.ar    1  UNL1       -0.0000
     31 C         142.7502  143.0107  170.1250 C.ar    1  UNL1        0.0000
     32 C         143.2303  141.8590  169.2925 C.ar    1  UNL1       -0.0000
     33 C         142.2892  141.1734  168.3469 C.ar    1  UNL1       -0.0000
@<TRIPOS>UNITY_ATOM_ATTR
19 1
charge -1
@<TRIPOS>BOND
     1     5     6    1
     2     6     7    1
     3     6     8    1
     4     8     9    1
     5     9    10    1
     6    10    11   ar
     7    11    12   ar
     8    12     2    1
     9     2     3    2
    10     2     4    2
    11     2     1    1
    12     1    17    1
    13    17    18    1
    14    18    19   ar
    15    18    20   ar
    16     1    21    1
    17    21    22    1
    18    22    23   ar
    19    23    24   ar
    20    24    25   ar
    21    25    26   ar
    22    26    28    1
    23    28    29   ar
    24    29    30   ar
    25    30    31   ar
    26    31    32   ar
    27    32    33   ar
    28    26    27   ar
    29    12    13   ar
    30    13    14   ar
    31    14    15   ar
    32    15    16    1
    33    16     6    1
    34    15    10   ar
    35    27    22   ar
    36    33    28   ar
@<TRIPOS>MOLECULE
*****
 33 36 0 0 0
SMALL
GASTEIGER

@<TRIPOS>ATOM
      1 N         139.4825  143.3305  162.2979 N.3     1  UNL1       -0.1454
      2 S         139.4136  142.3507  161.1642 S.O2    1  UNL1        0.0639
      3 O         140.7103  141.7430  161.6106 O.2     1  UNL1       -0.1528
      4 O         138.1169  142.9584  160.7178 O.2     1  UNL1       -0.1528
      5 C         139.3468  137.0643  155.2856 C.3     1  UNL1        0.0436
      6 C         140.2524  137.4501  156.4176 C.3     1  UNL1        0.1336
      7 C         141.0523  136.3348  155.8125 C.3     1  UNL1        0.0436
      8 C         141.4357  137.4486  157.3393 C.3     1  UNL1        0.0448
      9 C         141.5046  138.4284  158.4730 C.3     1  UNL1        0.0330
     10 C         140.3902  139.4098  158.6849 C.ar    1  UNL1        0.0132
     11 C         140.4591  140.3896  159.8186 C.ar    1  UNL1        0.0186
     12 C         139.3447  141.3709  160.0305 C.ar    1  UNL1        0.1221
     13 C         138.1612  141.3725  159.1087 C.ar    1  UNL1        0.0230
     14 C         138.0923  140.3927  157.9751 C.ar    1  UNL1        0.0379
     15 C         139.2068  139.4113  157.7632 C.ar    1  UNL1        0.1342
     16 O         139.1379  138.4315  156.6295 O.3     1  UNL1       -0.4829
     17 C         140.4924  144.4393  162.2706 C.3     1  UNL1        0.1375
     18 C         140.4612  145.4552  161.1674 C.2     1  UNL1        0.0683
     19 O         141.5260  145.4482  160.1109 O.co2   1  UNL1       -0.5477
     20 O         139.3652  146.4782  161.1208 O.co2   1  UNL1       -0.5477
     21 C         138.5415  143.2016  163.4588 C.3     1  UNL1        0.1225
     22 C         138.8544  142.2506  164.5758 C.ar    1  UNL1       -0.0045
     23 C         138.2707  140.8688  164.5700 C.ar    1  UNL1       -0.0029
     24 C         138.5836  139.9178  165.6870 C.ar    1  UNL1       -0.0003
     25 C         139.4802  140.3485  166.8097 C.ar    1  UNL1       -0.0000
     26 C         140.0639  141.7303  166.8155 C.ar    1  UNL1       -0.0003
     27 C         139.7510  142.6813  165.6986 C.ar    1  UNL1       -0.0029
     28 C         140.9605  142.1610  167.9383 C.ar    1  UNL1       -0.0000
     29 C         140.4396  143.0788  169.0042 C.ar    1  UNL1       -0.0000
     30 C         141.3362  143.5095  170.1269 C.ar    1  UNL1       -0.0000
     31 C         142.7538  143.0223  170.1838 C.ar    1  UNL1        0.0000
     32 C         143.2747  142.1044  169.1179 C.ar    1  UNL1       -0.0000
     33 C         142.3781  141.6738  167.9952 C.ar    1  UNL1       -0.0000
@<TRIPOS>UNITY_ATOM_ATTR
19 1
charge -1
@<TRIPOS>BOND
     1     5     6    1
     2     6     7    1
     3     6     8    1
     4     8     9    1
     5     9    10    1
     6    10    11   ar
     7    11    12   ar
     8    12     2    1
     9     2     3    2
    10     2     4    2
    11     2     1    1
    12     1    17    1
    13    17    18    1
    14    18    19   ar
    15    18    20   ar
    16     1    21    1
    17    21    22    1
    18    22    23   ar
    19    23    24   ar
    20    24    25   ar
    21    25    26   ar
    22    26    28    1
    23    28    29   ar
    24    29    30   ar
    25    30    31   ar
    26    31    32   ar
    27    32    33   ar
    28    26    27   ar
    29    12    13   ar
    30    13    14   ar
    31    14    15   ar
    32    15    16    1
    33    16     6    1
    34    15    10   ar
    35    27    22   ar
    36    33    28   ar
@<TRIPOS>MOLECULE
*****
 33 36 0 0 0
SMALL
GASTEIGER

@<TRIPOS>ATOM
      1 N         139.7287  144.1177  160.2918 N.3     1  UNL1       -0.1454
      2 S         139.8021  143.9667  161.7824 S.O2    1  UNL1        0.0639
      3 O         141.2567  143.6166  161.6753 O.2     1  UNL1       -0.1528
      4 O         138.3474  144.3169  161.8894 O.2     1  UNL1       -0.1528
      5 C         140.4635  142.9837  169.5993 C.3     1  UNL1        0.0436
      6 C         141.1993  142.5576  168.3635 C.3     1  UNL1        0.1336
      7 C         142.0475  141.9001  169.4116 C.3     1  UNL1        0.0436
      8 C         142.2297  141.9031  167.4918 C.3     1  UNL1        0.0448
      9 C         142.1563  142.0540  166.0012 C.3     1  UNL1        0.0330
     10 C         141.0526  142.8594  165.3824 C.ar    1  UNL1        0.0132
     11 C         140.9792  143.0104  163.8918 C.ar    1  UNL1        0.0186
     12 C         139.8755  143.8158  163.2729 C.ar    1  UNL1        0.1221
     13 C         138.8450  144.4703  164.1447 C.ar    1  UNL1        0.0230
     14 C         138.9184  144.3194  165.6353 C.ar    1  UNL1        0.0379
     15 C         140.0222  143.5139  166.2541 C.ar    1  UNL1        0.1342
     16 O         140.0956  143.3630  167.7447 O.3     1  UNL1       -0.4829
     17 C         140.2747  145.3509  159.6350 C.3     1  UNL1        0.1375
     18 C         141.2836  145.2289  158.5318 C.2     1  UNL1        0.0683
     19 O         140.9987  145.8262  157.1856 O.co2   1  UNL1       -0.5477
     20 O         142.5773  144.5098  158.7747 O.co2   1  UNL1       -0.5477
     21 C         139.1094  143.0355  159.4579 C.3     1  UNL1        0.1225
     22 C         139.2656  141.5984  159.8580 C.ar    1  UNL1       -0.0045
     23 C         139.6735  140.5762  158.8388 C.ar    1  UNL1       -0.0029
     24 C         139.8297  139.1389  159.2389 C.ar    1  UNL1       -0.0003
     25 C         139.5781  138.7240  160.6582 C.ar    1  UNL1       -0.0000
     26 C         139.1702  139.7462  161.6775 C.ar    1  UNL1       -0.0003
     27 C         139.0140  141.1833  161.2774 C.ar    1  UNL1       -0.0029
     28 C         138.9186  139.3311  163.0968 C.ar    1  UNL1       -0.0000
     29 C         139.1462  137.9083  163.5137 C.ar    1  UNL1       -0.0000
     30 C         138.8946  137.4934  164.9330 C.ar    1  UNL1       -0.0000
     31 C         138.4154  138.5012  165.9354 C.ar    1  UNL1        0.0000
     32 C         138.1878  139.9239  165.5185 C.ar    1  UNL1       -0.0000
     33 C         138.4394  140.3389  164.0992 C.ar    1  UNL1       -0.0000
@<TRIPOS>UNITY_ATOM_ATTR
19 1
charge -1
@<TRIPOS>BOND
     1     5     6    1
     2     6     7    1
     3     6     8    1
     4     8     9    1
     5     9    10    1
     6    10    11   ar
     7    11    12   ar
     8    12     2    1
     9     2     3    2
    10     2     4    2
    11     2     1    1
    12     1    17    1
    13    17    18    1
    14    18    19   ar
    15    18    20   ar
    16     1    21    1
    17    21    22    1
    18    22    23   ar
    19    23    24   ar
    20    24    25   ar
    21    25    26   ar
    22    26    28    1
    23    28    29   ar
    24    29    30   ar
    25    30    31   ar
    26    31    32   ar
    27    32    33   ar
    28    26    27   ar
    29    12    13   ar
    30    13    14   ar
    31    14    15   ar
    32    15    16    1
    33    16     6    1
    34    15    10   ar
    35    27    22   ar
    36    33    28   ar
@<TRIPOS>MOLECULE
*****
 33 36 0 0 0
SMALL
GASTEIGER

@<TRIPOS>ATOM
      1 N         143.7583  140.7217  160.8105 N.3     1  UNL1       -0.1454
      2 S         143.5775  140.4103  162.2666 S.O2    1  UNL1        0.0639
      3 O         144.9078  141.0356  162.5655 O.2     1  UNL1       -0.1528
      4 O         142.2473  139.7849  161.9677 O.2     1  UNL1       -0.1528
      5 C         142.6079  139.0974  170.0025 C.3     1  UNL1        0.0436
      6 C         142.6959  140.2788  169.0824 C.3     1  UNL1        0.1336
      7 C         142.5069  140.9831  170.3933 C.3     1  UNL1        0.0436
      8 C         142.7183  141.7048  168.6176 C.3     1  UNL1        0.0448
      9 C         142.8991  142.0163  167.1615 C.3     1  UNL1        0.0330
     10 C         143.0575  140.9018  166.1702 C.ar    1  UNL1        0.0132
     11 C         143.2383  141.2133  164.7140 C.ar    1  UNL1        0.0186
     12 C         143.3967  140.0988  163.7227 C.ar    1  UNL1        0.1221
     13 C         143.3744  138.6727  164.1875 C.ar    1  UNL1        0.0230
     14 C         143.1936  138.3613  165.6436 C.ar    1  UNL1        0.0379
     15 C         143.0352  139.4758  166.6350 C.ar    1  UNL1        0.1342
     16 O         142.8544  139.1644  168.0911 O.3     1  UNL1       -0.4829
     17 C         143.7620  139.6122  159.8010 C.3     1  UNL1        0.1375
     18 C         143.6109  139.9253  158.3418 C.2     1  UNL1        0.0683
     19 O         142.2468  139.9557  157.7186 O.co2   1  UNL1       -0.5477
     20 O         144.8239  140.2081  157.5059 O.co2   1  UNL1       -0.5477
     21 C         143.9355  142.1427  160.3638 C.3     1  UNL1        0.1225
     22 C         142.7538  143.0651  160.3111 C.ar    1  UNL1       -0.0045
     23 C         142.4915  143.8782  159.0782 C.ar    1  UNL1       -0.0029
     24 C         141.3098  144.8007  159.0255 C.ar    1  UNL1       -0.0003
     25 C         140.3904  144.9099  160.2056 C.ar    1  UNL1       -0.0000
     26 C         140.6527  144.0967  161.4385 C.ar    1  UNL1       -0.0003
     27 C         141.8343  143.1743  161.4912 C.ar    1  UNL1       -0.0029
     28 C         139.7332  144.2059  162.6187 C.ar    1  UNL1       -0.0000
     29 C         140.2461  144.7432  163.9218 C.ar    1  UNL1       -0.0000
     30 C         139.3266  144.8524  165.1019 C.ar    1  UNL1       -0.0000
     31 C         137.8943  144.4243  164.9788 C.ar    1  UNL1        0.0000
     32 C         137.3814  143.8871  163.6757 C.ar    1  UNL1       -0.0000
     33 C         138.3008  143.7778  162.4956 C.ar    1  UNL1       -0.0000
@<TRIPOS>UNITY_ATOM_ATTR
19 1
charge -1
@<TRIPOS>BOND
     1     5     6    1
     2     6     7    1
     3     6     8    1
     4     8     9    1
     5     9    10    1
     6    10    11   ar
     7    11    12   ar
     8    12     2    1
     9     2     3    2
    10     2     4    2
    11     2     1    1
    12     1    17    1
    13    17    18    1
    14    18    19   ar
    15    18    20   ar
    16     1    21    1
    17    21    22    1
    18    22    23   ar
    19    23    24   ar
    20    24    25   ar
    21    25    26   ar
    22    26    28    1
    23    28    29   ar
    24    29    30   ar
    25    30    31   ar
    26    31    32   ar
    27    32    33   ar
    28    26    27   ar
    29    12    13   ar
    30    13    14   ar
    31    14    15   ar
    32    15    16    1
    33    16     6    1
    34    15    10   ar
    35    27    22   ar
    36    33    28   ar
@<TRIPOS>MOLECULE
*****
 33 36 0 0 0
SMALL
GASTEIGER

@<TRIPOS>ATOM
      1 N         139.9793  139.0154  163.0707 N.3     1  UNL1       -0.1454
      2 S         140.8780  139.2053  161.8847 S.O2    1  UNL1        0.0639
      3 O         141.0924  140.6372  162.2766 O.2     1  UNL1       -0.1528
      4 O         140.6635  137.7734  161.4929 O.2     1  UNL1       -0.1528
      5 C         145.6960  140.5087  155.7532 C.3     1  UNL1        0.0436
      6 C         145.2546  141.2359  156.9886 C.3     1  UNL1        0.1336
      7 C         146.1900  142.2542  156.4071 C.3     1  UNL1        0.0436
      8 C         145.1380  142.3168  158.0221 C.3     1  UNL1        0.0448
      9 C         144.2394  142.1269  159.2080 C.3     1  UNL1        0.0330
     10 C         143.4573  140.8560  159.3605 C.ar    1  UNL1        0.0132
     11 C         142.5587  140.6661  160.5464 C.ar    1  UNL1        0.0186
     12 C         141.7766  139.3953  160.6988 C.ar    1  UNL1        0.1221
     13 C         141.8931  138.3143  159.6653 C.ar    1  UNL1        0.0230
     14 C         142.7917  138.5042  158.4794 C.ar    1  UNL1        0.0379
     15 C         143.5739  139.7752  158.3270 C.ar    1  UNL1        0.1342
     16 O         144.4725  139.9651  157.1411 O.3     1  UNL1       -0.4829
     17 C         138.6900  139.7763  163.1642 C.3     1  UNL1        0.1375
     18 C         137.7595  139.8227  161.9886 C.2     1  UNL1        0.0683
     19 O         137.3202  141.1443  161.4315 O.co2   1  UNL1       -0.5477
     20 O         137.2685  138.5475  161.3700 O.co2   1  UNL1       -0.5477
     21 C         140.3700  138.0645  164.1630 C.3     1  UNL1        0.1225
     22 C         141.2173  138.5416  165.3051 C.ar    1  UNL1       -0.0045
     23 C         142.6321  138.0623  165.4407 C.ar    1  UNL1       -0.0029
     24 C         143.4795  138.5394  166.5829 C.ar    1  UNL1       -0.0003
     25 C         142.9119  139.4959  167.5893 C.ar    1  UNL1       -0.0000
     26 C         141.4971  139.9752  167.4537 C.ar    1  UNL1       -0.0003
     27 C         140.6497  139.4981  166.3116 C.ar    1  UNL1       -0.0029
     28 C         140.9295  140.9317  168.4603 C.ar    1  UNL1       -0.0000
     29 C         141.5185  142.3035  168.6065 C.ar    1  UNL1       -0.0000
     30 C         140.9509  143.2599  169.6130 C.ar    1  UNL1       -0.0000
     31 C         139.7944  142.8446  170.4733 C.ar    1  UNL1        0.0000
     32 C         139.2055  141.4729  170.3270 C.ar    1  UNL1       -0.0000
     33 C         139.7730  140.5164  169.3205 C.ar    1  UNL1       -0.0000
@<TRIPOS>UNITY_ATOM_ATTR
19 1
charge -1
@<TRIPOS>BOND
     1     5     6    1
     2     6     7    1
     3     6     8    1
     4     8     9    1
     5     9    10    1
     6    10    11   ar
     7    11    12   ar
     8    12     2    1
     9     2     3    2
    10     2     4    2
    11     2     1    1
    12     1    17    1
    13    17    18    1
    14    18    19   ar
    15    18    20   ar
    16     1    21    1
    17    21    22    1
    18    22    23   ar
    19    23    24   ar
    20    24    25   ar
    21    25    26   ar
    22    26    28    1
    23    28    29   ar
    24    29    30   ar
    25    30    31   ar
    26    31    32   ar
    27    32    33   ar
    28    26    27   ar
    29    12    13   ar
    30    13    14   ar
    31    14    15   ar
    32    15    16    1
    33    16     6    1
    34    15    10   ar
    35    27    22   ar
    36    33    28   ar
