@<TRIPOS>MOLECULE
*****
 33 36 0 0 0
SMALL
GASTEIGER

@<TRIPOS>ATOM
      1 N         140.6848  140.2919  159.1222 N.3     1  UNL1       -0.2673
      2 C         141.0036  141.7345  158.8626 C.3     1  UNL1        0.1035
      3 C         140.4695  142.7968  159.7769 C.3     1  UNL1        0.1470
      4 C         139.9354  143.8593  160.6913 C.3     1  UNL1        0.1035
      5 N         139.0824  143.4792  161.8652 N.3     1  UNL1       -0.2682
      6 C         138.7636  142.0365  162.1247 C.3     1  UNL1        0.1035
      7 C         139.2977  140.9742  161.2103 C.3     1  UNL1        0.1470
      8 C         139.8318  139.9118  160.2960 C.3     1  UNL1        0.1035
      9 O         139.6166  142.4167  160.9508 O.3     1  UNL1       -0.3530
     10 C         141.2189  139.2295  158.2078 C.3     1  UNL1        0.0913
     11 C         142.0299  138.0979  158.7661 C.3     1  UNL1        0.1087
     12 N         143.2830  138.3833  159.5396 N.3     1  UNL1       -0.1780
     13 H         143.9396  137.6332  159.3237 H       1  UNL1        0.1488
     14 S         143.2321  138.4974  161.0344 S.O2    1  UNL1        0.0603
     15 O         144.2583  139.5902  160.9859 O.2     1  UNL1       -0.1530
     16 O         142.2058  137.4045  161.0828 O.2     1  UNL1       -0.1530
     17 C         143.0794  138.8395  165.5187 C.ar    1  UNL1        0.0685
     18 C         141.9928  138.1111  164.7847 C.ar    1  UNL1        0.0116
     19 C         142.0437  137.9971  163.2899 C.ar    1  UNL1        0.0206
     20 C         143.1812  138.6114  162.5291 C.ar    1  UNL1        0.1220
     21 C         144.2678  139.3398  163.2632 C.ar    1  UNL1        0.0206
     22 C         144.2169  139.4538  164.7580 C.ar    1  UNL1        0.0116
     23 N         142.9776  139.0676  168.5083 N.1     1  UNL1       -0.1908
     24 C         143.0285  138.9535  167.0135 C.1     1  UNL1        0.1004
     25 C         138.5483  144.5415  162.7795 C.3     1  UNL1        0.0769
     26 C         139.2068  144.7917  164.1039 C.3     1  UNL1        0.0437
     27 C         140.6261  144.3619  164.3289 C.ar    1  UNL1       -0.0207
     28 C         141.7528  145.1549  163.7359 C.ar    1  UNL1       -0.0034
     29 C         143.1722  144.7251  163.9609 C.ar    1  UNL1        0.0111
     30 C         143.4649  143.5024  164.7789 C.ar    1  UNL1        0.0577
     31 CL        144.8843  143.0726  165.0039 Cl      1  UNL1       -0.0822
     32 C         142.3382  142.7094  165.3720 C.ar    1  UNL1        0.0111
     33 C         140.9188  143.1392  165.1470 C.ar    1  UNL1       -0.0034
@<TRIPOS>BOND
     1    23    24    3
     2    24    17    1
     3    17    18   ar
     4    18    19   ar
     5    19    20   ar
     6    20    14    1
     7    14    15    2
     8    14    16    2
     9    14    12    1
    10    12    11    1
    11    11    10    1
    12    10     1    1
    13     1     2    1
    14     2     3    1
    15     3     4    1
    16     4     5    1
    17     5    25    1
    18    25    26    1
    19    26    27    1
    20    27    28   ar
    21    28    29   ar
    22    29    30   ar
    23    30    31    1
    24    30    32   ar
    25    32    33   ar
    26     5     6    1
    27     6     7    1
    28     7     8    1
    29     7     9    1
    30    20    21   ar
    31    21    22   ar
    32    22    17   ar
    33     8     1    1
    34     9     3    1
    35    33    27   ar
    36    12    13    1
@<TRIPOS>MOLECULE
*****
 33 36 0 0 0
SMALL
GASTEIGER

@<TRIPOS>ATOM
      1 N         142.1352  139.3615  159.4442 N.3     1  UNL1       -0.2673
      2 C         142.4889  138.5864  160.6788 C.3     1  UNL1        0.1035
      3 C         143.3915  139.1926  161.7120 C.3     1  UNL1        0.1470
      4 C         144.2943  139.7989  162.7453 C.3     1  UNL1        0.1035
      5 N         144.8433  141.1802  162.5439 N.3     1  UNL1       -0.2682
      6 C         144.4895  141.9553  161.3093 C.3     1  UNL1        0.1035
      7 C         143.5869  141.3491  160.2761 C.3     1  UNL1        0.1470
      8 C         142.6842  140.7428  159.2429 C.3     1  UNL1        0.1035
      9 O         143.9405  140.5740  161.5107 O.3     1  UNL1       -0.3530
     10 C         141.2324  138.7553  158.4109 C.3     1  UNL1        0.0913
     11 C         139.8244  138.3834  158.7704 C.3     1  UNL1        0.1087
     12 N         138.9417  139.3753  159.4684 N.3     1  UNL1       -0.1780
     13 H         139.2865  140.3024  159.2197 H       1  UNL1        0.1488
     14 S         138.8164  139.3463  160.9628 S.O2    1  UNL1        0.0603
     15 O         138.6544  140.8374  160.9781 O.2     1  UNL1       -0.1530
     16 O         138.9783  137.8552  160.9475 O.2     1  UNL1       -0.1530
     17 C         138.4404  139.2595  165.4463 C.ar    1  UNL1        0.0685
     18 C         138.8781  138.0303  164.7064 C.ar    1  UNL1        0.0116
     19 C         139.0035  138.0592  163.2119 C.ar    1  UNL1        0.0206
     20 C         138.6910  139.3173  162.4573 C.ar    1  UNL1        0.1220
     21 C         138.2533  140.5466  163.1972 C.ar    1  UNL1        0.0206
     22 C         138.1279  140.5176  164.6916 C.ar    1  UNL1        0.0116
     23 N         138.1897  139.2016  168.4352 N.1     1  UNL1       -0.1908
     24 C         138.3151  139.2305  166.9407 C.1     1  UNL1        0.1004
     25 C         145.7460  141.7865  163.5772 C.3     1  UNL1        0.0769
     26 C         145.1718  142.6500  164.6610 C.3     1  UNL1        0.0437
     27 C         143.7832  143.2007  164.5246 C.ar    1  UNL1       -0.0207
     28 C         142.6051  142.3804  164.9593 C.ar    1  UNL1       -0.0034
     29 C         141.2164  142.9311  164.8229 C.ar    1  UNL1        0.0111
     30 C         141.0060  144.3021  164.2518 C.ar    1  UNL1        0.0577
     31 CL        139.6175  144.8528  164.1154 Cl      1  UNL1       -0.0822
     32 C         142.1843  145.1224  163.8172 C.ar    1  UNL1        0.0111
     33 C         143.5729  144.5717  163.9536 C.ar    1  UNL1       -0.0034
@<TRIPOS>BOND
     1    23    24    3
     2    24    17    1
     3    17    18   ar
     4    18    19   ar
     5    19    20   ar
     6    20    14    1
     7    14    15    2
     8    14    16    2
     9    14    12    1
    10    12    11    1
    11    11    10    1
    12    10     1    1
    13     1     2    1
    14     2     3    1
    15     3     4    1
    16     4     5    1
    17     5    25    1
    18    25    26    1
    19    26    27    1
    20    27    28   ar
    21    28    29   ar
    22    29    30   ar
    23    30    31    1
    24    30    32   ar
    25    32    33   ar
    26     5     6    1
    27     6     7    1
    28     7     8    1
    29     7     9    1
    30    20    21   ar
    31    21    22   ar
    32    22    17   ar
    33     8     1    1
    34     9     3    1
    35    33    27   ar
    36    12    13    1
@<TRIPOS>MOLECULE
*****
 33 36 0 0 0
SMALL
GASTEIGER

@<TRIPOS>ATOM
      1 N         141.9013  141.0396  159.4932 N.3     1  UNL1       -0.2673
      2 C         140.4828  141.5025  159.3403 C.3     1  UNL1        0.1035
      3 C         139.9205  142.5218  160.2862 C.3     1  UNL1        0.1470
      4 C         139.3581  143.5412  161.2321 C.3     1  UNL1        0.1035
      5 N         140.2143  144.0976  162.3308 N.3     1  UNL1       -0.2682
      6 C         141.6329  143.6346  162.4837 C.3     1  UNL1        0.1035
      7 C         142.1952  142.6153  161.5378 C.3     1  UNL1        0.1470
      8 C         142.7575  141.5960  160.5919 C.3     1  UNL1        0.1035
      9 O         140.7767  143.0782  161.3849 O.3     1  UNL1       -0.3530
     10 C         142.4637  140.0202  158.5472 C.3     1  UNL1        0.0913
     11 C         142.1152  138.5707  158.7128 C.3     1  UNL1        0.1087
     12 N         142.9271  137.7040  159.6293 N.3     1  UNL1       -0.1780
     13 H         142.5979  136.7475  159.4983 H       1  UNL1        0.1488
     14 S         142.9236  137.9647  161.1064 S.O2    1  UNL1        0.0603
     15 O         141.4692  137.6030  161.1668 O.2     1  UNL1       -0.1530
     16 O         144.3781  138.3264  161.0460 O.2     1  UNL1       -0.1530
     17 C         142.9132  138.7468  165.5379 C.ar    1  UNL1        0.0685
     18 C         144.0129  139.3006  164.6812 C.ar    1  UNL1        0.0116
     19 C         144.0164  139.0399  163.2040 C.ar    1  UNL1        0.0206
     20 C         142.9202  138.2254  162.5836 C.ar    1  UNL1        0.1220
     21 C         141.8204  137.6716  163.4403 C.ar    1  UNL1        0.0206
     22 C         141.8170  137.9323  164.9175 C.ar    1  UNL1        0.0116
     23 N         142.9063  139.2681  168.4923 N.1     1  UNL1       -0.1908
     24 C         142.9097  139.0075  167.0151 C.1     1  UNL1        0.1004
     25 C         139.6520  145.1169  163.2767 C.3     1  UNL1        0.0769
     26 C         139.2209  144.7054  164.6533 C.3     1  UNL1        0.0437
     27 C         139.0740  143.2511  164.9898 C.ar    1  UNL1       -0.0207
     28 C         137.9541  142.4523  164.3918 C.ar    1  UNL1       -0.0034
     29 C         137.8071  140.9979  164.7284 C.ar    1  UNL1        0.0111
     30 C         138.7802  140.3423  165.6628 C.ar    1  UNL1        0.0577
     31 CL        138.6334  138.8880  165.9993 Cl      1  UNL1       -0.0822
     32 C         139.9003  141.1412  166.2608 C.ar    1  UNL1        0.0111
     33 C         140.0471  142.5955  165.9243 C.ar    1  UNL1       -0.0034
@<TRIPOS>BOND
     1    23    24    3
     2    24    17    1
     3    17    18   ar
     4    18    19   ar
     5    19    20   ar
     6    20    14    1
     7    14    15    2
     8    14    16    2
     9    14    12    1
    10    12    11    1
    11    11    10    1
    12    10     1    1
    13     1     2    1
    14     2     3    1
    15     3     4    1
    16     4     5    1
    17     5    25    1
    18    25    26    1
    19    26    27    1
    20    27    28   ar
    21    28    29   ar
    22    29    30   ar
    23    30    31    1
    24    30    32   ar
    25    32    33   ar
    26     5     6    1
    27     6     7    1
    28     7     8    1
    29     7     9    1
    30    20    21   ar
    31    21    22   ar
    32    22    17   ar
    33     8     1    1
    34     9     3    1
    35    33    27   ar
    36    12    13    1
@<TRIPOS>MOLECULE
*****
 33 36 0 0 0
SMALL
GASTEIGER

@<TRIPOS>ATOM
      1 N         139.3719  144.4276  163.1039 N.3     1  UNL1       -0.2673
      2 C         140.0402  144.0643  164.3966 C.3     1  UNL1        0.1035
      3 C         139.7492  142.7439  165.0461 C.3     1  UNL1        0.1470
      4 C         139.4583  141.4234  165.6957 C.3     1  UNL1        0.1035
      5 N         138.4991  140.4663  165.0524 N.3     1  UNL1       -0.2682
      6 C         137.8307  140.8297  163.7595 C.3     1  UNL1        0.1035
      7 C         138.1217  142.1501  163.1100 C.3     1  UNL1        0.1470
      8 C         138.4126  143.4705  162.4606 C.3     1  UNL1        0.1035
      9 O         138.7900  141.7868  164.4028 O.3     1  UNL1       -0.3530
     10 C         139.6628  145.7480  162.4543 C.3     1  UNL1        0.0913
     11 C         140.1028  145.7981  161.0212 C.3     1  UNL1        0.1087
     12 N         141.4877  145.3606  160.6460 N.3     1  UNL1       -0.1780
     13 H         141.7938  145.9704  159.8878 H       1  UNL1        0.1488
     14 S         141.7324  143.9515  160.1940 S.O2    1  UNL1        0.0603
     15 O         143.0622  143.9599  160.8878 O.2     1  UNL1       -0.1530
     16 O         140.4025  143.9430  159.5003 O.2     1  UNL1       -0.1530
     17 C         142.4666  139.7239  158.8380 C.ar    1  UNL1        0.0685
     18 C         141.0630  140.2365  158.9687 C.ar    1  UNL1        0.0116
     19 C         140.8182  141.6458  159.4207 C.ar    1  UNL1        0.0206
     20 C         141.9771  142.5423  159.7420 C.ar    1  UNL1        0.1220
     21 C         143.3807  142.0296  159.6113 C.ar    1  UNL1        0.0206
     22 C         143.6254  140.6205  159.1593 C.ar    1  UNL1        0.0116
     23 N         142.9561  136.9055  157.9340 N.1     1  UNL1       -0.1908
     24 C         142.7113  138.3148  158.3861 C.1     1  UNL1        0.1004
     25 C         138.2081  139.1460  165.7018 C.3     1  UNL1        0.0769
     26 C         138.8076  137.8883  165.1458 C.3     1  UNL1        0.0437
     27 C         140.0612  137.9543  164.3248 C.ar    1  UNL1       -0.0207
     28 C         141.3767  138.2401  164.9863 C.ar    1  UNL1       -0.0034
     29 C         142.6304  138.3061  164.1653 C.ar    1  UNL1        0.0111
     30 C         142.5685  138.0863  162.6828 C.ar    1  UNL1        0.0577
     31 CL        143.8220  138.1523  161.8617 Cl      1  UNL1       -0.0822
     32 C         141.2528  137.8005  162.0213 C.ar    1  UNL1        0.0111
     33 C         139.9992  137.7345  162.8423 C.ar    1  UNL1       -0.0034
@<TRIPOS>BOND
     1    23    24    3
     2    24    17    1
     3    17    18   ar
     4    18    19   ar
     5    19    20   ar
     6    20    14    1
     7    14    15    2
     8    14    16    2
     9    14    12    1
    10    12    11    1
    11    11    10    1
    12    10     1    1
    13     1     2    1
    14     2     3    1
    15     3     4    1
    16     4     5    1
    17     5    25    1
    18    25    26    1
    19    26    27    1
    20    27    28   ar
    21    28    29   ar
    22    29    30   ar
    23    30    31    1
    24    30    32   ar
    25    32    33   ar
    26     5     6    1
    27     6     7    1
    28     7     8    1
    29     7     9    1
    30    20    21   ar
    31    21    22   ar
    32    22    17   ar
    33     8     1    1
    34     9     3    1
    35    33    27   ar
    36    12    13    1
@<TRIPOS>MOLECULE
*****
 33 36 0 0 0
SMALL
GASTEIGER

@<TRIPOS>ATOM
      1 N         139.8462  142.1455  159.5419 N.3     1  UNL1       -0.2673
      2 C         141.3200  142.0238  159.2907 C.3     1  UNL1        0.1035
      3 C         142.2953  142.7020  160.2065 C.3     1  UNL1        0.1470
      4 C         143.2706  143.3803  161.1224 C.3     1  UNL1        0.1035
      5 N         142.7722  144.1802  162.2893 N.3     1  UNL1       -0.2682
      6 C         141.2983  144.3018  162.5404 C.3     1  UNL1        0.1035
      7 C         140.3230  143.6235  161.6246 C.3     1  UNL1        0.1470
      8 C         139.3477  142.9453  160.7088 C.3     1  UNL1        0.1035
      9 O         141.7968  143.5019  161.3735 O.3     1  UNL1       -0.3530
     10 C         138.8708  141.4672  158.6260 C.3     1  UNL1        0.0913
     11 C         138.1356  140.2436  159.0867 C.3     1  UNL1        0.1087
     12 N         138.8512  139.1952  159.8861 N.3     1  UNL1       -0.1780
     13 H         138.4379  138.2980  159.6320 H       1  UNL1        0.1488
     14 S         138.8499  139.2637  161.3845 S.O2    1  UNL1        0.0603
     15 O         137.3597  139.4343  161.3754 O.2     1  UNL1       -0.1530
     16 O         140.3401  139.0931  161.3937 O.2     1  UNL1       -0.1530
     17 C         138.8457  139.4692  165.8798 C.ar    1  UNL1        0.0685
     18 C         139.2389  138.1979  165.1875 C.ar    1  UNL1        0.0116
     19 C         139.2403  138.1294  163.6891 C.ar    1  UNL1        0.0206
     20 C         138.8485  139.3322  162.8829 C.ar    1  UNL1        0.1220
     21 C         138.4553  140.6035  163.5753 C.ar    1  UNL1        0.0206
     22 C         138.4539  140.6720  165.0737 C.ar    1  UNL1        0.0116
     23 N         138.8429  139.6061  168.8767 N.1     1  UNL1       -0.1908
     24 C         138.8443  139.5377  167.3782 C.1     1  UNL1        0.1004
     25 C         143.7475  144.8584  163.2051 C.3     1  UNL1        0.0769
     26 C         144.0628  144.2574  164.5428 C.3     1  UNL1        0.0437
     27 C         143.7731  142.8085  164.8012 C.ar    1  UNL1       -0.0207
     28 C         142.5469  142.4144  165.5701 C.ar    1  UNL1       -0.0034
     29 C         142.2572  140.9655  165.8285 C.ar    1  UNL1        0.0111
     30 C         143.1936  139.9107  165.3180 C.ar    1  UNL1        0.0577
     31 CL        142.9038  138.4618  165.5763 Cl      1  UNL1       -0.0822
     32 C         144.4197  140.3049  164.5490 C.ar    1  UNL1        0.0111
     33 C         144.7095  141.7537  164.2907 C.ar    1  UNL1       -0.0034
@<TRIPOS>BOND
     1    23    24    3
     2    24    17    1
     3    17    18   ar
     4    18    19   ar
     5    19    20   ar
     6    20    14    1
     7    14    15    2
     8    14    16    2
     9    14    12    1
    10    12    11    1
    11    11    10    1
    12    10     1    1
    13     1     2    1
    14     2     3    1
    15     3     4    1
    16     4     5    1
    17     5    25    1
    18    25    26    1
    19    26    27    1
    20    27    28   ar
    21    28    29   ar
    22    29    30   ar
    23    30    31    1
    24    30    32   ar
    25    32    33   ar
    26     5     6    1
    27     6     7    1
    28     7     8    1
    29     7     9    1
    30    20    21   ar
    31    21    22   ar
    32    22    17   ar
    33     8     1    1
    34     9     3    1
    35    33    27   ar
    36    12    13    1
@<TRIPOS>MOLECULE
*****
 33 36 0 0 0
SMALL
GASTEIGER

@<TRIPOS>ATOM
      1 N         142.5626  141.5150  159.7424 N.3     1  UNL1       -0.2673
      2 C         143.1210  142.4780  160.7478 C.3     1  UNL1        0.1035
      3 C         142.2006  143.3868  161.5073 C.3     1  UNL1        0.1470
      4 C         141.2802  144.2957  162.2669 C.3     1  UNL1        0.1035
      5 N         139.8015  144.2416  162.0210 N.3     1  UNL1       -0.2682
      6 C         139.2432  143.2786  161.0155 C.3     1  UNL1        0.1035
      7 C         140.1635  142.3698  160.2559 C.3     1  UNL1        0.1470
      8 C         141.0839  141.4610  159.4964 C.3     1  UNL1        0.1035
      9 O         140.7219  143.3327  161.2614 O.3     1  UNL1       -0.3530
     10 C         143.4830  140.6061  158.9828 C.3     1  UNL1        0.0913
     11 C         143.8483  139.2657  159.5482 C.3     1  UNL1        0.1087
     12 N         142.8235  138.1718  159.6067 N.3     1  UNL1       -0.1780
     13 H         142.1982  138.3114  158.8130 H       1  UNL1        0.1488
     14 S         141.9554  138.0214  160.8206 S.O2    1  UNL1        0.0603
     15 O         143.1775  137.8494  161.6732 O.2     1  UNL1       -0.1530
     16 O         140.7334  138.1935  159.9681 O.2     1  UNL1       -0.1530
     17 C         139.3511  137.5702  164.4626 C.ar    1  UNL1        0.0685
     18 C         140.8440  137.5136  164.5965 C.ar    1  UNL1        0.0116
     19 C         141.7122  137.6640  163.3825 C.ar    1  UNL1        0.0206
     20 C         141.0874  137.8710  162.0346 C.ar    1  UNL1        0.1220
     21 C         139.5944  137.9277  161.9008 C.ar    1  UNL1        0.0206
     22 C         138.7263  137.7773  163.1147 C.ar    1  UNL1        0.0116
     23 N         137.6149  137.2694  166.8906 N.1     1  UNL1       -0.1908
     24 C         138.4830  137.4199  165.6766 C.1     1  UNL1        0.1004
     25 C         138.8812  145.1504  162.7805 C.3     1  UNL1        0.0769
     26 C         138.0904  144.6192  163.9392 C.3     1  UNL1        0.0437
     27 C         138.6332  143.4889  164.7624 C.ar    1  UNL1       -0.0207
     28 C         139.6981  143.7504  165.7858 C.ar    1  UNL1       -0.0034
     29 C         140.2410  142.6201  166.6091 C.ar    1  UNL1        0.0111
     30 C         139.7190  141.2282  166.4088 C.ar    1  UNL1        0.0577
     31 CL        140.2618  140.0979  167.2320 Cl      1  UNL1       -0.0822
     32 C         138.6540  140.9667  165.3852 C.ar    1  UNL1        0.0111
     33 C         138.1112  142.0970  164.5621 C.ar    1  UNL1       -0.0034
@<TRIPOS>BOND
     1    23    24    3
     2    24    17    1
     3    17    18   ar
     4    18    19   ar
     5    19    20   ar
     6    20    14    1
     7    14    15    2
     8    14    16    2
     9    14    12    1
    10    12    11    1
    11    11    10    1
    12    10     1    1
    13     1     2    1
    14     2     3    1
    15     3     4    1
    16     4     5    1
    17     5    25    1
    18    25    26    1
    19    26    27    1
    20    27    28   ar
    21    28    29   ar
    22    29    30   ar
    23    30    31    1
    24    30    32   ar
    25    32    33   ar
    26     5     6    1
    27     6     7    1
    28     7     8    1
    29     7     9    1
    30    20    21   ar
    31    21    22   ar
    32    22    17   ar
    33     8     1    1
    34     9     3    1
    35    33    27   ar
    36    12    13    1
@<TRIPOS>MOLECULE
*****
 33 36 0 0 0
SMALL
GASTEIGER

@<TRIPOS>ATOM
      1 N         141.1750  140.5976  159.1305 N.3     1  UNL1       -0.2673
      2 C         142.1481  141.4368  159.9042 C.3     1  UNL1        0.1035
      3 C         141.6470  142.5131  160.8209 C.3     1  UNL1        0.1470
      4 C         141.1459  143.5895  161.7376 C.3     1  UNL1        0.1035
      5 N         139.6717  143.8266  161.8806 N.3     1  UNL1       -0.2682
      6 C         138.6986  142.9873  161.1068 C.3     1  UNL1        0.1035
      7 C         139.1997  141.9110  160.1901 C.3     1  UNL1        0.1470
      8 C         139.7008  140.8347  159.2734 C.3     1  UNL1        0.1035
      9 O         140.1728  142.7502  160.9638 O.3     1  UNL1       -0.3530
     10 C         141.6761  139.5211  158.2137 C.3     1  UNL1        0.0913
     11 C         142.9017  138.7367  158.5775 C.3     1  UNL1        0.1087
     12 N         142.8043  137.6043  159.5565 N.3     1  UNL1       -0.1780
     13 H         141.9239  137.1257  159.3664 H       1  UNL1        0.1488
     14 S         142.8368  137.8821  161.0302 S.O2    1  UNL1        0.0603
     15 O         144.2728  138.3011  160.9195 O.2     1  UNL1       -0.1530
     16 O         141.4008  137.4630  161.1408 O.2     1  UNL1       -0.1530
     17 C         142.9343  138.7153  165.4513 C.ar    1  UNL1        0.0685
     18 C         141.7983  137.9342  164.8602 C.ar    1  UNL1        0.0116
     19 C         141.7658  137.6564  163.3864 C.ar    1  UNL1        0.0206
     20 C         142.8693  138.1598  162.5038 C.ar    1  UNL1        0.1220
     21 C         144.0053  138.9409  163.0950 C.ar    1  UNL1        0.0206
     22 C         144.0378  139.2186  164.5687 C.ar    1  UNL1        0.0116
     23 N         142.9993  139.2707  168.3987 N.1     1  UNL1       -0.1908
     24 C         142.9668  138.9930  166.9249 C.1     1  UNL1        0.1004
     25 C         139.1706  144.9030  162.7973 C.3     1  UNL1        0.0769
     26 C         138.3735  144.5399  164.0151 C.3     1  UNL1        0.0437
     27 C         138.7129  143.3027  164.7923 C.ar    1  UNL1       -0.0207
     28 C         139.7725  143.3505  165.8528 C.ar    1  UNL1       -0.0034
     29 C         140.1120  142.1132  166.6301 C.ar    1  UNL1        0.0111
     30 C         139.3918  140.8283  166.3467 C.ar    1  UNL1        0.0577
     31 CL        139.7312  139.5911  167.1239 Cl      1  UNL1       -0.0822
     32 C         138.3321  140.7806  165.2861 C.ar    1  UNL1        0.0111
     33 C         137.9927  142.0178  164.5089 C.ar    1  UNL1       -0.0034
@<TRIPOS>BOND
     1    23    24    3
     2    24    17    1
     3    17    18   ar
     4    18    19   ar
     5    19    20   ar
     6    20    14    1
     7    14    15    2
     8    14    16    2
     9    14    12    1
    10    12    11    1
    11    11    10    1
    12    10     1    1
    13     1     2    1
    14     2     3    1
    15     3     4    1
    16     4     5    1
    17     5    25    1
    18    25    26    1
    19    26    27    1
    20    27    28   ar
    21    28    29   ar
    22    29    30   ar
    23    30    31    1
    24    30    32   ar
    25    32    33   ar
    26     5     6    1
    27     6     7    1
    28     7     8    1
    29     7     9    1
    30    20    21   ar
    31    21    22   ar
    32    22    17   ar
    33     8     1    1
    34     9     3    1
    35    33    27   ar
    36    12    13    1
@<TRIPOS>MOLECULE
*****
 33 36 0 0 0
SMALL
GASTEIGER

@<TRIPOS>ATOM
      1 N         141.0252  144.2678  160.2966 N.3     1  UNL1       -0.2673
      2 C         140.1135  143.1815  159.8079 C.3     1  UNL1        0.1035
      3 C         140.6092  141.7684  159.7226 C.3     1  UNL1        0.1470
      4 C         141.1049  140.3552  159.6373 C.3     1  UNL1        0.1035
      5 N         142.5122  140.0283  160.0407 N.3     1  UNL1       -0.2682
      6 C         143.4238  141.1147  160.5294 C.3     1  UNL1        0.1035
      7 C         142.9281  142.5279  160.6146 C.3     1  UNL1        0.1470
      8 C         142.4325  143.9410  160.6999 C.3     1  UNL1        0.1035
      9 O         142.0165  141.4416  160.1260 O.3     1  UNL1       -0.3530
     10 C         140.5295  145.6810  160.3819 C.3     1  UNL1        0.0913
     11 C         139.7017  146.1160  161.5547 C.3     1  UNL1        0.1087
     12 N         140.1363  145.7715  162.9485 N.3     1  UNL1       -0.1780
     13 H         141.1563  145.7835  162.9503 H       1  UNL1        0.1488
     14 S         139.7176  144.4695  163.5644 S.O2    1  UNL1        0.0603
     15 O         141.1298  144.2244  164.0064 O.2     1  UNL1       -0.1530
     16 O         138.3053  144.7147  163.1225 O.2     1  UNL1       -0.1530
     17 C         138.4612  140.5635  165.4123 C.ar    1  UNL1        0.0685
     18 C         139.6154  141.3289  165.9885 C.ar    1  UNL1        0.0116
     19 C         140.0342  142.6310  165.3726 C.ar    1  UNL1        0.0206
     20 C         139.2988  143.1675  164.1804 C.ar    1  UNL1        0.1220
     21 C         138.1446  142.4021  163.6042 C.ar    1  UNL1        0.0206
     22 C         137.7258  141.1001  164.2202 C.ar    1  UNL1        0.0116
     23 N         137.6237  137.9595  166.6443 N.1     1  UNL1       -0.1908
     24 C         138.0425  139.2616  166.0283 C.1     1  UNL1        0.1004
     25 C         143.0078  138.6152  159.9554 C.3     1  UNL1        0.0769
     26 C         142.6058  137.6151  160.9986 C.3     1  UNL1        0.0437
     27 C         142.6349  137.9925  162.4500 C.ar    1  UNL1       -0.0207
     28 C         141.4463  137.7135  163.3214 C.ar    1  UNL1       -0.0034
     29 C         141.4754  138.0909  164.7729 C.ar    1  UNL1        0.0111
     30 C         142.6930  138.7473  165.3529 C.ar    1  UNL1        0.0577
     31 CL        142.7221  139.1248  166.8044 Cl      1  UNL1       -0.0822
     32 C         143.8816  139.0263  164.4815 C.ar    1  UNL1        0.0111
     33 C         143.8526  138.6489  163.0300 C.ar    1  UNL1       -0.0034
@<TRIPOS>BOND
     1    23    24    3
     2    24    17    1
     3    17    18   ar
     4    18    19   ar
     5    19    20   ar
     6    20    14    1
     7    14    15    2
     8    14    16    2
     9    14    12    1
    10    12    11    1
    11    11    10    1
    12    10     1    1
    13     1     2    1
    14     2     3    1
    15     3     4    1
    16     4     5    1
    17     5    25    1
    18    25    26    1
    19    26    27    1
    20    27    28   ar
    21    28    29   ar
    22    29    30   ar
    23    30    31    1
    24    30    32   ar
    25    32    33   ar
    26     5     6    1
    27     6     7    1
    28     7     8    1
    29     7     9    1
    30    20    21   ar
    31    21    22   ar
    32    22    17   ar
    33     8     1    1
    34     9     3    1
    35    33    27   ar
    36    12    13    1
@<TRIPOS>MOLECULE
*****
 33 36 0 0 0
SMALL
GASTEIGER

@<TRIPOS>ATOM
      1 N         141.8414  139.8813  159.4537 N.3     1  UNL1       -0.2673
      2 C         142.8900  140.8618  159.8881 C.3     1  UNL1        0.1035
      3 C         142.5145  142.2869  160.1674 C.3     1  UNL1        0.1470
      4 C         142.1390  143.7121  160.4467 C.3     1  UNL1        0.1035
      5 N         140.7148  144.1566  160.2915 N.3     1  UNL1       -0.2682
      6 C         139.6662  143.1760  159.8570 C.3     1  UNL1        0.1035
      7 C         140.0417  141.7509  159.5777 C.3     1  UNL1        0.1470
      8 C         140.4172  140.3258  159.2985 C.3     1  UNL1        0.1035
      9 O         141.0903  142.7315  160.0122 O.3     1  UNL1       -0.3530
     10 C         142.2169  138.4561  159.1743 C.3     1  UNL1        0.0913
     11 C         142.9606  137.6605  160.2058 C.3     1  UNL1        0.1087
     12 N         142.2912  137.2955  161.4976 N.3     1  UNL1       -0.1780
     13 H         141.2910  137.2401  161.3056 H       1  UNL1        0.1488
     14 S         142.4530  138.1760  162.7011 S.O2    1  UNL1        0.0603
     15 O         141.0032  137.9858  163.0351 O.2     1  UNL1       -0.1530
     16 O         143.9029  138.3662  162.3671 O.2     1  UNL1       -0.1530
     17 C         142.9384  140.8176  166.3117 C.ar    1  UNL1        0.0685
     18 C         143.4680  141.2621  164.9806 C.ar    1  UNL1        0.0116
     19 C         143.3063  140.3815  163.7770 C.ar    1  UNL1        0.0206
     20 C         142.6148  139.0565  163.9046 C.ar    1  UNL1        0.1220
     21 C         142.0852  138.6120  165.2358 C.ar    1  UNL1        0.0206
     22 C         142.2470  139.4926  166.4393 C.ar    1  UNL1        0.0116
     23 N         143.2620  142.5787  168.7188 N.1     1  UNL1       -0.1908
     24 C         143.1002  141.6981  167.5152 C.1     1  UNL1        0.1004
     25 C         140.3393  145.5817  160.5708 C.3     1  UNL1        0.0769
     26 C         139.6988  145.9464  161.8773 C.3     1  UNL1        0.0437
     27 C         139.6715  144.9542  163.0019 C.ar    1  UNL1       -0.0207
     28 C         140.9151  144.6876  163.7972 C.ar    1  UNL1       -0.0034
     29 C         140.8878  143.6954  164.9219 C.ar    1  UNL1        0.0111
     30 C         139.6170  142.9698  165.2512 C.ar    1  UNL1        0.0577
     31 CL        139.5897  141.9776  166.3759 Cl      1  UNL1       -0.0822
     32 C         138.3734  143.2364  164.4559 C.ar    1  UNL1        0.0111
     33 C         138.4007  144.2286  163.3313 C.ar    1  UNL1       -0.0034
@<TRIPOS>BOND
     1    23    24    3
     2    24    17    1
     3    17    18   ar
     4    18    19   ar
     5    19    20   ar
     6    20    14    1
     7    14    15    2
     8    14    16    2
     9    14    12    1
    10    12    11    1
    11    11    10    1
    12    10     1    1
    13     1     2    1
    14     2     3    1
    15     3     4    1
    16     4     5    1
    17     5    25    1
    18    25    26    1
    19    26    27    1
    20    27    28   ar
    21    28    29   ar
    22    29    30   ar
    23    30    31    1
    24    30    32   ar
    25    32    33   ar
    26     5     6    1
    27     6     7    1
    28     7     8    1
    29     7     9    1
    30    20    21   ar
    31    21    22   ar
    32    22    17   ar
    33     8     1    1
    34     9     3    1
    35    33    27   ar
    36    12    13    1
