@<TRIPOS>MOLECULE
*****
 25 28 0 0 0
SMALL
GASTEIGER

@<TRIPOS>ATOM
      1 N         141.3340  139.2806  163.2967 N.ar    1  UNL1       -0.2563
      2 C         142.1740  140.1341  164.2001 C.ar    1  UNL1        0.1851
      3 N         141.7092  140.4339  165.5945 N.ar    1  UNL1       -0.2244
      4 C         140.4044  139.8802  166.0854 C.ar    1  UNL1        0.0941
      5 C         139.6923  140.0045  167.3997 C.ar    1  UNL1        0.0270
      6 C         138.4122  139.2279  167.3086 C.ar    1  UNL1        0.0372
      7 S         138.3332  138.6236  165.9380 S.2     1  UNL1       -0.0802
      8 C         139.5644  139.0268  165.1820 C.ar    1  UNL1        0.1036
      9 C         140.0292  138.7270  163.7877 C.ar    1  UNL1        0.2733
     10 O         139.1893  137.8735  162.8844 O.2     1  UNL1       -0.2660
     11 C         140.1754  140.7709  168.5952 C.ar    1  UNL1        0.0294
     12 C         140.4318  140.0579  169.8897 C.ar    1  UNL1        0.0023
     13 C         140.9150  140.8242  171.0853 C.ar    1  UNL1        0.0001
     14 C         141.1418  142.3037  170.9862 C.ar    1  UNL1        0.0023
     15 C         140.8854  143.0167  169.6917 C.ar    1  UNL1        0.0296
     16 C         140.4022  142.2504  168.4961 C.ar    1  UNL1        0.1401
     17 F         140.1458  142.9635  167.2017 F       1  UNL1       -0.2042
     18 C         142.7284  138.3813  159.1138 C.ar    1  UNL1        0.1388
     19 C         141.8000  139.5326  159.3636 C.ar    1  UNL1        0.0384
     20 C         141.3352  139.8324  160.7580 C.ar    1  UNL1        0.0208
     21 C         141.7988  138.9808  161.9025 C.ar    1  UNL1        0.0685
     22 C         142.7273  137.8295  161.6527 C.ar    1  UNL1        0.0208
     23 C         143.1921  137.5297  160.2584 C.ar    1  UNL1        0.0384
     24 C         142.7215  136.8398  157.0224 C.3     1  UNL1        0.2525
     25 O         143.1932  138.0815  157.7196 O.3     1  UNL1       -0.4714
@<TRIPOS>BOND
     1    24    25    1
     2    25    18    1
     3    18    19   ar
     4    19    20   ar
     5    20    21   ar
     6    21     1    1
     7     1     2   ar
     8     2     3   ar
     9     3     4   ar
    10     4     5   ar
    11     5    11    1
    12    11    12   ar
    13    12    13   ar
    14    13    14   ar
    15    14    15   ar
    16    15    16   ar
    17    16    17    1
    18     5     6   ar
    19     6     7   ar
    20     7     8   ar
    21     8     9   ar
    22     9    10    2
    23    21    22   ar
    24    22    23   ar
    25    23    18   ar
    26     9     1   ar
    27     8     4   ar
    28    16    11   ar
@<TRIPOS>MOLECULE
*****
 25 28 0 0 0
SMALL
GASTEIGER

@<TRIPOS>ATOM
      1 N         141.5166  139.3441  162.8736 N.ar    1  UNL1       -0.2563
      2 C         142.4732  140.2625  163.5746 C.ar    1  UNL1        0.1851
      3 N         142.2058  140.6869  164.9883 N.ar    1  UNL1       -0.2244
      4 C         140.9819  140.1929  165.7009 C.ar    1  UNL1        0.0941
      5 C         140.4586  140.4385  167.0851 C.ar    1  UNL1        0.0270
      6 C         139.1785  139.6719  167.2395 C.ar    1  UNL1        0.0372
      7 S         138.9108  138.9525  165.9508 S.2     1  UNL1       -0.0802
      8 C         140.0252  139.2745  164.9999 C.ar    1  UNL1        0.1036
      9 C         140.2926  138.8501  163.5863 C.ar    1  UNL1        0.2733
     10 O         139.3360  137.9317  162.8853 O.2     1  UNL1       -0.2660
     11 C         141.1023  141.2996  168.1311 C.ar    1  UNL1        0.0294
     12 C         140.4223  142.5545  168.5921 C.ar    1  UNL1        0.0023
     13 C         141.0660  143.4157  169.6381 C.ar    1  UNL1        0.0001
     14 C         142.3898  143.0217  170.2232 C.ar    1  UNL1        0.0023
     15 C         143.0698  141.7667  169.7623 C.ar    1  UNL1        0.0296
     16 C         142.4261  140.9056  168.7162 C.ar    1  UNL1        0.1401
     17 F         143.1062  139.6507  168.2553 F       1  UNL1       -0.2042
     18 C         142.3186  138.0709  158.6327 C.ar    1  UNL1        0.1388
     19 C         141.3236  139.1576  158.9141 C.ar    1  UNL1        0.0384
     20 C         141.0563  139.5820  160.3278 C.ar    1  UNL1        0.0208
     21 C         141.7839  138.9197  161.4600 C.ar    1  UNL1        0.0685
     22 C         142.7789  137.8330  161.1786 C.ar    1  UNL1        0.0208
     23 C         143.0462  137.4086  159.7650 C.ar    1  UNL1        0.0384
     24 C         142.7356  136.1910  156.8885 C.3     1  UNL1        0.2525
     25 O         142.5859  137.6465  157.2191 O.3     1  UNL1       -0.4714
@<TRIPOS>BOND
     1    24    25    1
     2    25    18    1
     3    18    19   ar
     4    19    20   ar
     5    20    21   ar
     6    21     1    1
     7     1     2   ar
     8     2     3   ar
     9     3     4   ar
    10     4     5   ar
    11     5    11    1
    12    11    12   ar
    13    12    13   ar
    14    13    14   ar
    15    14    15   ar
    16    15    16   ar
    17    16    17    1
    18     5     6   ar
    19     6     7   ar
    20     7     8   ar
    21     8     9   ar
    22     9    10    2
    23    21    22   ar
    24    22    23   ar
    25    23    18   ar
    26     9     1   ar
    27     8     4   ar
    28    16    11   ar
@<TRIPOS>MOLECULE
*****
 25 28 0 0 0
SMALL
GASTEIGER

@<TRIPOS>ATOM
      1 N         140.7157  143.3714  162.4720 N.ar    1  UNL1       -0.2563
      2 C         139.5436  143.1343  163.3775 C.ar    1  UNL1        0.1851
      3 N         139.7682  142.7665  164.8143 N.ar    1  UNL1       -0.2244
      4 C         141.1649  142.6357  165.3455 C.ar    1  UNL1        0.0941
      5 C         141.6929  142.2887  166.7060 C.ar    1  UNL1        0.0270
      6 C         143.1913  142.3113  166.6413 C.ar    1  UNL1        0.0372
      7 S         143.5894  142.6723  165.2408 S.2     1  UNL1       -0.0802
      8 C         142.3370  142.8728  164.4400 C.ar    1  UNL1        0.1036
      9 C         142.1124  143.2406  163.0033 C.ar    1  UNL1        0.2733
     10 O         143.2845  143.4777  162.0978 O.2     1  UNL1       -0.2660
     11 C         140.8674  141.9743  167.9183 C.ar    1  UNL1        0.0294
     12 C         140.7228  142.9911  169.0115 C.ar    1  UNL1        0.0023
     13 C         139.8972  142.6767  170.2239 C.ar    1  UNL1        0.0001
     14 C         139.2163  141.3455  170.3429 C.ar    1  UNL1        0.0023
     15 C         139.3609  140.3287  169.2497 C.ar    1  UNL1        0.0296
     16 C         140.1864  140.6431  168.0373 C.ar    1  UNL1        0.1401
     17 F         140.3310  139.6262  166.9442 F       1  UNL1       -0.2042
     18 C         140.0421  144.4750  158.1618 C.ar    1  UNL1        0.1388
     19 C         140.3192  145.5453  159.1755 C.ar    1  UNL1        0.0384
     20 C         140.5438  145.1774  160.6123 C.ar    1  UNL1        0.0208
     21 C         140.4912  143.7392  161.0353 C.ar    1  UNL1        0.0685
     22 C         140.2141  142.6689  160.0215 C.ar    1  UNL1        0.0208
     23 C         139.9895  143.0368  158.5848 C.ar    1  UNL1        0.0384
     24 C         140.0097  146.2608  156.2750 C.3     1  UNL1        0.2525
     25 O         139.8176  144.8428  156.7250 O.3     1  UNL1       -0.4714
@<TRIPOS>BOND
     1    24    25    1
     2    25    18    1
     3    18    19   ar
     4    19    20   ar
     5    20    21   ar
     6    21     1    1
     7     1     2   ar
     8     2     3   ar
     9     3     4   ar
    10     4     5   ar
    11     5    11    1
    12    11    12   ar
    13    12    13   ar
    14    13    14   ar
    15    14    15   ar
    16    15    16   ar
    17    16    17    1
    18     5     6   ar
    19     6     7   ar
    20     7     8   ar
    21     8     9   ar
    22     9    10    2
    23    21    22   ar
    24    22    23   ar
    25    23    18   ar
    26     9     1   ar
    27     8     4   ar
    28    16    11   ar
@<TRIPOS>MOLECULE
*****
 25 28 0 0 0
SMALL
GASTEIGER

@<TRIPOS>ATOM
      1 N         141.1889  143.7568  161.9743 N.ar    1  UNL1       -0.2563
      2 C         142.0892  144.3095  163.0393 C.ar    1  UNL1        0.1851
      3 N         141.9395  143.8515  164.4598 N.ar    1  UNL1       -0.2244
      4 C         140.8896  142.8410  164.8154 C.ar    1  UNL1        0.0941
      5 C         140.5092  142.2054  166.1198 C.ar    1  UNL1        0.0270
      6 C         139.3738  141.2599  165.8610 C.ar    1  UNL1        0.0372
      7 S         139.0526  141.3112  164.3967 S.2     1  UNL1       -0.0802
      8 C         139.9894  142.2883  163.7505 C.ar    1  UNL1        0.1036
      9 C         140.1390  142.7461  162.3300 C.ar    1  UNL1        0.2733
     10 O         139.2388  142.1934  161.2650 O.2     1  UNL1       -0.2660
     11 C         141.1514  142.4691  167.4495 C.ar    1  UNL1        0.0294
     12 C         140.3646  143.1247  168.5455 C.ar    1  UNL1        0.0023
     13 C         141.0068  143.3884  169.8752 C.ar    1  UNL1        0.0001
     14 C         142.4357  142.9965  170.1089 C.ar    1  UNL1        0.0023
     15 C         143.2224  142.3409  169.0129 C.ar    1  UNL1        0.0296
     16 C         142.5803  142.0772  167.6831 C.ar    1  UNL1        0.1401
     17 F         143.3671  141.4217  166.5872 F       1  UNL1       -0.2042
     18 C         141.6379  145.1304  157.7127 C.ar    1  UNL1        0.1388
     19 C         142.5743  144.1003  158.2713 C.ar    1  UNL1        0.0384
     20 C         142.4246  143.6424  159.6919 C.ar    1  UNL1        0.0208
     21 C         141.3386  144.2146  160.5538 C.ar    1  UNL1        0.0685
     22 C         140.4021  145.2447  159.9952 C.ar    1  UNL1        0.0208
     23 C         140.5517  145.7026  158.5747 C.ar    1  UNL1        0.0384
     24 C         141.6592  144.6024  155.1689 C.3     1  UNL1        0.2525
     25 O         141.7875  145.5882  156.2922 O.3     1  UNL1       -0.4714
@<TRIPOS>BOND
     1    24    25    1
     2    25    18    1
     3    18    19   ar
     4    19    20   ar
     5    20    21   ar
     6    21     1    1
     7     1     2   ar
     8     2     3   ar
     9     3     4   ar
    10     4     5   ar
    11     5    11    1
    12    11    12   ar
    13    12    13   ar
    14    13    14   ar
    15    14    15   ar
    16    15    16   ar
    17    16    17    1
    18     5     6   ar
    19     6     7   ar
    20     7     8   ar
    21     8     9   ar
    22     9    10    2
    23    21    22   ar
    24    22    23   ar
    25    23    18   ar
    26     9     1   ar
    27     8     4   ar
    28    16    11   ar
@<TRIPOS>MOLECULE
*****
 25 28 0 0 0
SMALL
GASTEIGER

@<TRIPOS>ATOM
      1 N         140.0237  140.2399  163.3828 N.ar    1  UNL1       -0.2563
      2 C         139.6053  141.2017  164.4551 C.ar    1  UNL1        0.1851
      3 N         140.2879  141.1795  165.7906 N.ar    1  UNL1       -0.2244
      4 C         141.3888  140.1953  166.0539 C.ar    1  UNL1        0.0941
      5 C         142.2389  139.9400  167.2631 C.ar    1  UNL1        0.0270
      6 C         143.1827  138.8203  166.9382 C.ar    1  UNL1        0.0372
      7 S         142.9159  138.3836  165.5282 S.2     1  UNL1       -0.0802
      8 C         141.8073  139.2335  164.9816 C.ar    1  UNL1        0.1036
      9 C         141.1247  139.2557  163.6461 C.ar    1  UNL1        0.2733
     10 O         141.5431  138.2938  162.5739 O.2     1  UNL1       -0.2660
     11 C         142.1591  140.6752  168.5681 C.ar    1  UNL1        0.0294
     12 C         141.3972  140.0838  169.7168 C.ar    1  UNL1        0.0023
     13 C         141.3174  140.8190  171.0219 C.ar    1  UNL1        0.0001
     14 C         141.9996  142.1458  171.1782 C.ar    1  UNL1        0.0023
     15 C         142.7615  142.7372  170.0294 C.ar    1  UNL1        0.0296
     16 C         142.8414  142.0019  168.7244 C.ar    1  UNL1        0.1401
     17 F         143.6033  142.5934  167.5757 F       1  UNL1       -0.2042
     18 C         137.9761  140.3066  159.3762 C.ar    1  UNL1        0.1388
     19 C         139.3130  140.9652  159.5463 C.ar    1  UNL1        0.0384
     20 C         139.9955  140.9429  160.8819 C.ar    1  UNL1        0.0208
     21 C         139.3412  140.2621  162.0473 C.ar    1  UNL1        0.0685
     22 C         138.0042  139.6035  161.8773 C.ar    1  UNL1        0.0208
     23 C         137.3217  139.6257  160.5418 C.ar    1  UNL1        0.0384
     24 C         138.0573  140.7335  156.8148 C.3     1  UNL1        0.2525
     25 O         137.2935  140.3288  158.0408 O.3     1  UNL1       -0.4714
@<TRIPOS>BOND
     1    24    25    1
     2    25    18    1
     3    18    19   ar
     4    19    20   ar
     5    20    21   ar
     6    21     1    1
     7     1     2   ar
     8     2     3   ar
     9     3     4   ar
    10     4     5   ar
    11     5    11    1
    12    11    12   ar
    13    12    13   ar
    14    13    14   ar
    15    14    15   ar
    16    15    16   ar
    17    16    17    1
    18     5     6   ar
    19     6     7   ar
    20     7     8   ar
    21     8     9   ar
    22     9    10    2
    23    21    22   ar
    24    22    23   ar
    25    23    18   ar
    26     9     1   ar
    27     8     4   ar
    28    16    11   ar
@<TRIPOS>MOLECULE
*****
 25 28 0 0 0
SMALL
GASTEIGER

@<TRIPOS>ATOM
      1 N         140.6938  142.8217  163.1380 N.ar    1  UNL1       -0.2563
      2 C         141.5701  143.0989  164.3234 C.ar    1  UNL1        0.1851
      3 N         141.3773  142.3273  165.5953 N.ar    1  UNL1       -0.2244
      4 C         140.3082  141.2787  165.6817 C.ar    1  UNL1        0.0941
      5 C         139.8861  140.3649  166.7938 C.ar    1  UNL1        0.0270
      6 C         138.7490  139.5230  166.2957 C.ar    1  UNL1        0.0372
      7 S         138.4683  139.9165  164.8757 S.2     1  UNL1       -0.0802
      8 C         139.4319  141.0016  164.4962 C.ar    1  UNL1        0.1036
      9 C         139.6247  141.7730  163.2244 C.ar    1  UNL1        0.2733
     10 O         138.7484  141.4959  162.0389 O.2     1  UNL1       -0.2660
     11 C         140.4944  140.3037  168.1636 C.ar    1  UNL1        0.0294
     12 C         139.7219  140.7992  169.3501 C.ar    1  UNL1        0.0023
     13 C         140.3301  140.7381  170.7199 C.ar    1  UNL1        0.0001
     14 C         141.7109  140.1815  170.9032 C.ar    1  UNL1        0.0023
     15 C         142.4834  139.6860  169.7167 C.ar    1  UNL1        0.0296
     16 C         141.8752  139.7471  168.3469 C.ar    1  UNL1        0.1401
     17 F         142.6478  139.2517  167.1605 F       1  UNL1       -0.2042
     18 C         141.2720  145.1363  159.3224 C.ar    1  UNL1        0.1388
     19 C         140.3286  145.6442  160.3721 C.ar    1  UNL1        0.0384
     20 C         140.1358  144.8727  161.6440 C.ar    1  UNL1        0.0208
     21 C         140.8865  143.5932  161.8662 C.ar    1  UNL1        0.0685
     22 C         141.8300  143.0853  160.8165 C.ar    1  UNL1        0.0208
     23 C         142.0228  143.8567  159.5446 C.ar    1  UNL1        0.0384
     24 C         140.3177  146.0867  157.1007 C.3     1  UNL1        0.2525
     25 O         141.4648  145.9078  158.0506 O.3     1  UNL1       -0.4714
@<TRIPOS>BOND
     1    24    25    1
     2    25    18    1
     3    18    19   ar
     4    19    20   ar
     5    20    21   ar
     6    21     1    1
     7     1     2   ar
     8     2     3   ar
     9     3     4   ar
    10     4     5   ar
    11     5    11    1
    12    11    12   ar
    13    12    13   ar
    14    13    14   ar
    15    14    15   ar
    16    15    16   ar
    17    16    17    1
    18     5     6   ar
    19     6     7   ar
    20     7     8   ar
    21     8     9   ar
    22     9    10    2
    23    21    22   ar
    24    22    23   ar
    25    23    18   ar
    26     9     1   ar
    27     8     4   ar
    28    16    11   ar
@<TRIPOS>MOLECULE
*****
 25 28 0 0 0
SMALL
GASTEIGER

@<TRIPOS>ATOM
      1 N         139.8109  139.2148  163.3195 N.ar    1  UNL1       -0.2563
      2 C         140.4357  137.9713  162.7598 C.ar    1  UNL1        0.1851
      3 N         140.6504  137.8400  161.2811 N.ar    1  UNL1       -0.2244
      4 C         140.2404  138.9522  160.3620 C.ar    1  UNL1        0.0941
      5 C         140.3262  139.1066  158.8724 C.ar    1  UNL1        0.0270
      6 C         139.7544  140.4455  158.5114 C.ar    1  UNL1        0.0372
      7 S         139.3152  141.1187  159.7779 S.2     1  UNL1       -0.0802
      8 C         139.6155  140.1958  160.9216 C.ar    1  UNL1        0.1036
      9 C         139.4008  140.3271  162.4003 C.ar    1  UNL1        0.2733
     10 O         138.7760  141.5706  162.9599 O.2     1  UNL1       -0.2660
     11 C         140.8855  138.0989  157.9124 C.ar    1  UNL1        0.0294
     12 C         140.0052  137.5008  156.8554 C.ar    1  UNL1        0.0023
     13 C         140.5645  136.4931  155.8953 C.ar    1  UNL1        0.0001
     14 C         142.0042  136.0835  155.9923 C.ar    1  UNL1        0.0023
     15 C         142.8846  136.6815  157.0493 C.ar    1  UNL1        0.0296
     16 C         142.3253  137.6893  158.0094 C.ar    1  UNL1        0.1401
     17 F         143.2056  138.2873  159.0663 F       1  UNL1       -0.2042
     18 C         139.1668  139.6088  167.7557 C.ar    1  UNL1        0.1388
     19 C         140.4354  140.1132  167.1343 C.ar    1  UNL1        0.0384
     20 C         140.6501  139.9819  165.6555 C.ar    1  UNL1        0.0208
     21 C         139.5962  139.3462  164.7982 C.ar    1  UNL1        0.0685
     22 C         138.3275  138.8418  165.4195 C.ar    1  UNL1        0.0208
     23 C         138.1128  138.9731  166.8982 C.ar    1  UNL1        0.0384
     24 C         139.4334  140.9637  169.9564 C.3     1  UNL1        0.2525
     25 O         138.9520  139.7402  169.2344 O.3     1  UNL1       -0.4714
@<TRIPOS>BOND
     1    24    25    1
     2    25    18    1
     3    18    19   ar
     4    19    20   ar
     5    20    21   ar
     6    21     1    1
     7     1     2   ar
     8     2     3   ar
     9     3     4   ar
    10     4     5   ar
    11     5    11    1
    12    11    12   ar
    13    12    13   ar
    14    13    14   ar
    15    14    15   ar
    16    15    16   ar
    17    16    17    1
    18     5     6   ar
    19     6     7   ar
    20     7     8   ar
    21     8     9   ar
    22     9    10    2
    23    21    22   ar
    24    22    23   ar
    25    23    18   ar
    26     9     1   ar
    27     8     4   ar
    28    16    11   ar
@<TRIPOS>MOLECULE
*****
 25 28 0 0 0
SMALL
GASTEIGER

@<TRIPOS>ATOM
      1 N         139.7535  141.2375  162.7930 N.ar    1  UNL1       -0.2563
      2 C         140.7204  142.1859  163.4377 C.ar    1  UNL1        0.1851
      3 N         140.9432  142.1371  164.9203 N.ar    1  UNL1       -0.2244
      4 C         140.1993  141.1398  165.7581 C.ar    1  UNL1        0.0941
      5 C         140.2119  140.8585  167.2314 C.ar    1  UNL1        0.0270
      6 C         139.2529  139.7362  167.4973 C.ar    1  UNL1        0.0372
      7 S         138.6475  139.3239  166.1883 S.2     1  UNL1       -0.0802
      8 C         139.2324  140.1914  165.1134 C.ar    1  UNL1        0.1036
      9 C         139.0095  140.2402  163.6308 C.ar    1  UNL1        0.2733
     10 O         138.0427  139.2918  162.9861 O.2     1  UNL1       -0.2660
     11 C         141.0385  141.5739  168.2585 C.ar    1  UNL1        0.0294
     12 C         140.4919  142.7891  168.9473 C.ar    1  UNL1        0.0023
     13 C         141.3184  143.5046  169.9744 C.ar    1  UNL1        0.0001
     14 C         142.6916  143.0048  170.3128 C.ar    1  UNL1        0.0023
     15 C         143.2382  141.7896  169.6240 C.ar    1  UNL1        0.0296
     16 C         142.4117  141.0741  168.5969 C.ar    1  UNL1        0.1401
     17 F         142.9584  139.8589  167.9082 F       1  UNL1       -0.2042
     18 C         139.0848  141.3839  158.3453 C.ar    1  UNL1        0.1388
     19 C         139.9417  140.3057  158.9399 C.ar    1  UNL1        0.0384
     20 C         140.1645  140.2570  160.4225 C.ar    1  UNL1        0.0208
     21 C         139.5306  141.2863  161.3104 C.ar    1  UNL1        0.0685
     22 C         138.6738  142.3644  160.7159 C.ar    1  UNL1        0.0208
     23 C         138.4509  142.4132  159.2334 C.ar    1  UNL1        0.0384
     24 C         138.6435  140.1627  156.0950 C.3     1  UNL1        0.2525
     25 O         138.8619  141.4327  156.8628 O.3     1  UNL1       -0.4714
@<TRIPOS>BOND
     1    24    25    1
     2    25    18    1
     3    18    19   ar
     4    19    20   ar
     5    20    21   ar
     6    21     1    1
     7     1     2   ar
     8     2     3   ar
     9     3     4   ar
    10     4     5   ar
    11     5    11    1
    12    11    12   ar
    13    12    13   ar
    14    13    14   ar
    15    14    15   ar
    16    15    16   ar
    17    16    17    1
    18     5     6   ar
    19     6     7   ar
    20     7     8   ar
    21     8     9   ar
    22     9    10    2
    23    21    22   ar
    24    22    23   ar
    25    23    18   ar
    26     9     1   ar
    27     8     4   ar
    28    16    11   ar
@<TRIPOS>MOLECULE
*****
 25 28 0 0 0
SMALL
GASTEIGER

@<TRIPOS>ATOM
      1 N         143.0476  141.1207  162.8683 N.ar    1  UNL1       -0.2563
      2 C         142.2903  142.1813  163.6109 C.ar    1  UNL1        0.1851
      3 N         141.9754  141.9983  165.0661 N.ar    1  UNL1       -0.2244
      4 C         142.4179  140.7547  165.7785 C.ar    1  UNL1        0.0941
      5 C         142.2540  140.2991  167.1982 C.ar    1  UNL1        0.0270
      6 C         142.9100  138.9569  167.3330 C.ar    1  UNL1        0.0372
      7 S         143.4794  138.5830  165.9966 S.2     1  UNL1       -0.0802
      8 C         143.1753  139.6941  165.0359 C.ar    1  UNL1        0.1036
      9 C         143.4901  139.8770  163.5808 C.ar    1  UNL1        0.2733
     10 O         144.2475  138.8164  162.8382 O.2     1  UNL1       -0.2660
     11 C         141.5565  141.0533  168.2912 C.ar    1  UNL1        0.0294
     12 C         140.2401  140.5639  168.8182 C.ar    1  UNL1        0.0023
     13 C         139.5425  141.3180  169.9112 C.ar    1  UNL1        0.0001
     14 C         140.1614  142.5616  170.4773 C.ar    1  UNL1        0.0023
     15 C         141.4777  143.0510  169.9503 C.ar    1  UNL1        0.0296
     16 C         142.1753  142.2969  168.8573 C.ar    1  UNL1        0.1401
     17 F         143.4916  142.7864  168.3304 F       1  UNL1       -0.2042
     18 C         143.9923  141.6697  158.5029 C.ar    1  UNL1        0.1388
     19 C         144.7416  142.4564  159.5371 C.ar    1  UNL1        0.0384
     20 C         144.4267  142.2733  160.9923 C.ar    1  UNL1        0.0208
     21 C         143.3625  141.3037  161.4132 C.ar    1  UNL1        0.0685
     22 C         142.6132  140.5170  160.3790 C.ar    1  UNL1        0.0208
     23 C         142.9280  140.6999  158.9239 C.ar    1  UNL1        0.0384
     24 C         143.3828  141.2976  156.0049 C.3     1  UNL1        0.2525
     25 O         144.3071  141.8526  157.0478 O.3     1  UNL1       -0.4714
@<TRIPOS>BOND
     1    24    25    1
     2    25    18    1
     3    18    19   ar
     4    19    20   ar
     5    20    21   ar
     6    21     1    1
     7     1     2   ar
     8     2     3   ar
     9     3     4   ar
    10     4     5   ar
    11     5    11    1
    12    11    12   ar
    13    12    13   ar
    14    13    14   ar
    15    14    15   ar
    16    15    16   ar
    17    16    17    1
    18     5     6   ar
    19     6     7   ar
    20     7     8   ar
    21     8     9   ar
    22     9    10    2
    23    21    22   ar
    24    22    23   ar
    25    23    18   ar
    26     9     1   ar
    27     8     4   ar
    28    16    11   ar
